                                   MODFLOW 6
                U.S. GEOLOGICAL SURVEY MODULAR HYDROLOGIC MODEL
                          GROUNDWATER FLOW MODEL (GWF)
                            VERSION 6.3.0 03/04/2022

   MODFLOW 6 compiled Mar 02 2022 15:29:04 with Intel(R) Fortran Intel(R) 64
   Compiler Classic for applications running on Intel(R) 64, Version 2021.5.0
                             Build 20211109_000000

This software has been approved for release by the U.S. Geological 
Survey (USGS). Although the software has been subjected to rigorous 
review, the USGS reserves the right to update the software as needed 
pursuant to further analysis and review. No warranty, expressed or 
implied, is made by the USGS or the U.S. Government as to the 
functionality of the software and related material nor shall the 
fact of release constitute any such warranty. Furthermore, the 
software is released on condition that neither the USGS nor the U.S. 
Government shall be held liable for any damages resulting from its 
authorized or unauthorized use. Also refer to the USGS Water 
Resources Software User Rights Notice for complete use, copyright, 
and distribution information.


As a work of the United States Government, this USGS product is 
in the public domain within the United States. You can copy, 
modify, distribute, and perform the work, even for commercial 
purposes, all without asking permission. Additionally, USGS 
waives copyright and related rights in the work worldwide 
through CC0 1.0 Universal Public Domain Dedication 
(https://creativecommons.org/publicdomain/zero/1.0/).

The following GNU Lesser General Public License (LGPL) libraries
are used in this USGS product:

    SPARSKIT version 2.0
      ilut, luson, and qsplit 
      (https://www-users.cse.umn.edu/~saad/software/SPARSKIT/)

    RCM - Reverse Cuthill McKee Ordering
      (https://people.math.sc.edu/Burkardt/f_src/rcm/rcm.html)

    BLAS - Basic Linear Algebra Subprograms Level 1
      (https://people.math.sc.edu/Burkardt/f_src/blas1_d/blas1_d.html)

    SPARSEKIT - Sparse Matrix Utility Package
      amux, dperm, dvperm, rperm, and cperm
      (https://people.sc.fsu.edu/~jburkardt/f77_src/sparsekit/sparsekit.html)

The following BSD-3 License libraries are used in this USGS product:

    Modern Fortran DAG Library
      Copyright (c) 2018, Jacob Williams
      All rights reserved.
      (https://github.com/jacobwilliams/daglib)

MODFLOW 6 compiler options: /Isrc\libmf6core.a.p /Isrc /I..\src
/Isrc\libmf6_external.a.p /MTd /nologo /warn:general /warn:truncated_source
/stand:f08 /Zi /traceback /O2 /Zi /fpe:0 /fpp /Qdiag-disable:7416
/Qdiag-disable:7025 /Qdiag-disable:5268
/Fdsrc\libmf6core.a.p\Utilities_compilerversion.F90.pdb
/module:src\libmf6core.a.p
/Fosrc/libmf6core.a.p/Utilities_compilerversion.F90.obj /c

System command used to initiate simulation:
c:\src\MODFLOW6\mf6.3.0\bin\mf6

MODFLOW was compiled using uniform precision.

Real Variables
  KIND: 8
  TINY (smallest non-zero value):    2.225074-308
  HUGE (largest value):    1.797693+308
  PRECISION: 15
  BIT SIZE: 64

Integer Variables
  KIND: 4
  HUGE (largest value): 2147483647
  BIT SIZE: 32

Long Integer Variables
  KIND: 8
  HUGE (largest value): 9223372036854775807
  BIT SIZE: 64

Logical Variables
  KIND: 4
  BIT SIZE: 32
 

 OPENED .\GWF_1\MODELINPUT\T-MODEL-D.DIS6
 FILE TYPE:DIS6                   UNIT 1005   STATUS:OLD                 
 FORMAT:FORMATTED              ACCESS:SEQUENTIAL          
 ACTION:READ                


 OPENED .\GWF_1\MODELINPUT\T-MODEL-D.IC6
 FILE TYPE:IC6                    UNIT 1006   STATUS:OLD                 
 FORMAT:FORMATTED              ACCESS:SEQUENTIAL          
 ACTION:READ                


 OPENED .\GWF_1\MODELINPUT\T-MODEL-D.NPF6
 FILE TYPE:NPF6                   UNIT 1007   STATUS:OLD                 
 FORMAT:FORMATTED              ACCESS:SEQUENTIAL          
 ACTION:READ                


 OPENED .\GWF_1\MODELINPUT\T-MODEL-D.OC6
 FILE TYPE:OC6                    UNIT 1008   STATUS:OLD                 
 FORMAT:FORMATTED              ACCESS:SEQUENTIAL          
 ACTION:READ                


 OPENED .\GWF_1\MODELINPUT\T-MODEL-D.STO6
 FILE TYPE:STO6                   UNIT 1009   STATUS:OLD                 
 FORMAT:FORMATTED              ACCESS:SEQUENTIAL          
 ACTION:READ                


 OPENED .\GWF_1\MODELINPUT\T-MODEL-D_SYS1.DRN6
 FILE TYPE:DRN6                   UNIT 1010   STATUS:OLD                 
 FORMAT:FORMATTED              ACCESS:SEQUENTIAL          
 ACTION:READ                


 OPENED .\GWF_1\MODELINPUT\T-MODEL-D_SYS1.RIV6
 FILE TYPE:RIV6                   UNIT 1011   STATUS:OLD                 
 FORMAT:FORMATTED              ACCESS:SEQUENTIAL          
 ACTION:READ                


 OPENED .\GWF_1\MODELINPUT\T-MODEL-D_SYS2.RIV6
 FILE TYPE:RIV6                   UNIT 1012   STATUS:OLD                 
 FORMAT:FORMATTED              ACCESS:SEQUENTIAL          
 ACTION:READ                


 OPENED .\GWF_1\MODELINPUT\MSW.RCH6
 FILE TYPE:RCH6                   UNIT 1013   STATUS:OLD                 
 FORMAT:FORMATTED              ACCESS:SEQUENTIAL          
 ACTION:READ                


 DIS -- STRUCTURED GRID DISCRETIZATION PACKAGE, VERSION 2 : 3/27/2014 - INPUT READ FROM UNIT 1005


 # DIS6 File Generated by iMOD [V5_4 X64 Optimized]
 PROCESSING DISCRETIZATION OPTIONS
    MODEL LENGTH UNIT IS METERS
    XORIGIN SPECIFIED AS     0.00000000000000    
    YORIGIN SPECIFIED AS     0.00000000000000    
    ANGROT SPECIFIED AS     0.00000000000000    
 END OF DISCRETIZATION OPTIONS
 #Model Dimensions
 PROCESSING DISCRETIZATION DIMENSIONS
    NLAY =       1
    NROW =      11
    NCOL =      10
 END OF DISCRETIZATION DIMENSIONS
 #Cell Sizes
 PROCESSING GRIDDATA

                     DELR =   100.0000    

                     DELC =   100.0000    
 #Vertical Configuration

 TOP ELEVATION OF LAYER 1 =   0.000000    

   MODEL LAYER BOTTOM EL. =  -10.00000     FOR LAYER 1
 #Boundary Settings

 OPENED .\GWF_1\MODELINPUT\DIS6\IBOUND_L1.ARR
 FILE TYPE:OPEN/CLOSE   UNIT 1015   STATUS:OLD                 
 FORMAT:FORMATTED              ACCESS:SEQUENTIAL          
 ACTION:READ                

 END PROCESSING GRIDDATA

 NPF -- NODE PROPERTY FLOW PACKAGE, VERSION 1, 3/30/2015 INPUT READ FROM UNIT 1007


 # NPF6 File Generated by iMOD [V5_4 X64 Optimized]
 #General Options
 PROCESSING NPF OPTIONS
    ALTERNATIVE CELL AVERAGING HAS BEEN SET TO AMT-HMK
    CELL AVERAGING METHOD HAS BEEN SET TO: AMT-HMK                                                                                                                                                                                                                                                                                                     
 END OF NPF OPTIONS

 DRN   -- DRN PACKAGE, VERSION 8, 2/22/2014 INPUT READ FROM UNIT 1010
 # DRN6 File Generated by iMOD [V5_4 X64 Optimized]
 #General Options

 PROCESSING DRN OPTIONS
    FLOWS WILL BE SAVED TO BUDGET FILE SPECIFIED IN OUTPUT CONTROL
 END OF DRN OPTIONS
 #General Dimensions

 PROCESSING DRN DIMENSIONS
    MAXBOUND =       2
 END OF DRN DIMENSIONS

 RIV   -- RIV PACKAGE, VERSION 8, 2/22/2014 INPUT READ FROM UNIT 1011
 # RIV6 File Generated by iMOD [V5_4 X64 Optimized]
 #General Options

 PROCESSING RIV OPTIONS
    FLOWS WILL BE SAVED TO BUDGET FILE SPECIFIED IN OUTPUT CONTROL
 END OF RIV OPTIONS
 #General Dimensions

 PROCESSING RIV DIMENSIONS
    MAXBOUND =      55
 END OF RIV DIMENSIONS

 RIV   -- RIV PACKAGE, VERSION 8, 2/22/2014 INPUT READ FROM UNIT 1012
 # RIV6 File Generated by iMOD [V5_4 X64 Optimized]
 #General Options

 PROCESSING RIV OPTIONS
    FLOWS WILL BE SAVED TO BUDGET FILE SPECIFIED IN OUTPUT CONTROL
 END OF RIV OPTIONS
 #General Dimensions

 PROCESSING RIV DIMENSIONS
    MAXBOUND =       3
 END OF RIV DIMENSIONS

 RCH   -- RCH PACKAGE, VERSION 8, 2/22/2014 INPUT READ FROM UNIT 1013
 # RCH6 File Generated by iMOD [V5_4 X64 Optimized]
 #General Options

 PROCESSING RCH OPTIONS
 END OF RCH OPTIONS
 #General Dimensions

 PROCESSING RCH DIMENSIONS
    MAXBOUND =     110
 END OF RCH DIMENSIONS

 IC -- INITIAL CONDITIONS PACKAGE, VERSION 8, 3/28/2015 INPUT READ FROM UNIT 1006
 # IC6 File Generated by iMOD [V5_4 X64 Optimized]
 #General Options
 PROCESSING IC OPTIONS
 END OF IC OPTIONS
 #Initial Head Data
 PROCESSING GRIDDATA

     INITIAL HEAD =   10.00000     FOR LAYER 1
 END PROCESSING GRIDDATA
 #Geology Options
 PROCESSING GRIDDATA

                ICELLTYPE = 0 FOR LAYER 1

                        K =   100.0000     FOR LAYER 1

                      K33 =   1.000000     FOR LAYER 1
 K22 not provided.  Assuming K22 = K.
 END PROCESSING GRIDDATA

 STO -- STORAGE PACKAGE, VERSION 1, 5/19/2014 INPUT READ FROM UNIT 1009


 # STO6 File Generated by iMOD [V5_4 X64 Optimized]
 #General Options
 PROCESSING STORAGE OPTIONS
    STORAGECOEFFICIENT OPTION:
 Read storage coefficient rather than specific storage
 END OF STORAGE OPTIONS
 #Geology Options
 PROCESSING GRIDDATA

                 ICONVERT = 0 FOR LAYER 1

         SPECIFIC STORAGE =  0.1500000     FOR LAYER 1
 END PROCESSING GRIDDATA
    BINARY GRID INFORMATION WILL BE WRITTEN TO:
      UNIT NUMBER: 1016
      FILE NAME: C:\src\lumbricus\lumbricustests\t-model\MF6\testD\GWF_1\MODELINPUT\T-MODEL-D.DIS6.grb

 OPENED C:\src\lumbricus\lumbricustests\t-model\MF6\testD\GWF_1\MODELINPUT\T-MODEL-D.DIS6.grb
 FILE TYPE:DATA(BINARY)   UNIT 1016   STATUS:REPLACE             
 FORMAT:UNFORMATTED            ACCESS:STREAM              
 ACTION:READWRITE           

      THE LAST TIME STEP WILL BE PRINTED
      THE LAST TIME STEP WILL BE PRINTED
 # OC6 File Generated by iMOD [V5_4 X64 Optimized]
 #General Options

 PROCESSING OC OPTIONS

    HEAD INFORMATION WILL BE WRITTEN TO:
      UNIT NUMBER: 1017
      FILE NAME: .\GWF_1\MODELOUTPUT\HEAD\HEAD.HED

 OPENED .\GWF_1\MODELOUTPUT\HEAD\HEAD.HED
 FILE TYPE:DATA(BINARY)   UNIT 1017   STATUS:REPLACE             
 FORMAT:UNFORMATTED            ACCESS:STREAM              
 ACTION:READWRITE           

    BUDGET INFORMATION WILL BE WRITTEN TO:
      UNIT NUMBER: 1018
      FILE NAME: .\GWF_1\MODELOUTPUT\BUDGET\BUDGET.CBC

 OPENED .\GWF_1\MODELOUTPUT\BUDGET\BUDGET.CBC
 FILE TYPE:DATA(BINARY)   UNIT 1018   STATUS:REPLACE             
 FORMAT:UNFORMATTED            ACCESS:STREAM              
 ACTION:READWRITE           

 END OF OC OPTIONS

start timestep kper="1" kstp="1" mode="normal"

 #Stressperiod Save Options

 BEGIN READING OUTPUT CONTROL FOR STRESS PERIOD 1
      ALL TIME STEPS WILL BE SAVED
      ALL TIME STEPS WILL BE SAVED

 END READING OUTPUT CONTROL FOR STRESS PERIOD 1
 #Time Storage Options


 PROCESSING STORAGE PERIOD DATA
 END PROCESSING STORAGE PERIOD DATA


 STRESS PERIOD 1 IS TRANSIENT


 OPENED .\GWF_1\MODELINPUT\DRN6\SYS1\DRN_T1.ARR
 FILE TYPE:OPEN/CLOSE   UNIT 1021   STATUS:OLD                 
 FORMAT:FORMATTED              ACCESS:SEQUENTIAL          
 ACTION:READ                


 OPENED .\GWF_1\MODELINPUT\ISG6\SYS1\ISG_T1.ARR
 FILE TYPE:OPEN/CLOSE   UNIT 1022   STATUS:OLD                 
 FORMAT:FORMATTED              ACCESS:SEQUENTIAL          
 ACTION:READ                


 OPENED .\GWF_1\MODELINPUT\RIV6\SYS1\RIV_T1.ARR
 FILE TYPE:OPEN/CLOSE   UNIT 1023   STATUS:OLD                 
 FORMAT:FORMATTED              ACCESS:SEQUENTIAL          
 ACTION:READ                

 UBDSV06 SAVING              DRN IN MODEL GWF_1            PACKAGE GWF_1           CONNECTED TO MODEL GWF_1            PACKAGE DRN_SYS1         ON UNIT   1018 AT TIME STEP      1, STRESS PERIOD      1
 UBDSV06 SAVING              RIV IN MODEL GWF_1            PACKAGE GWF_1           CONNECTED TO MODEL GWF_1            PACKAGE RIV_SYS1         ON UNIT   1018 AT TIME STEP      1, STRESS PERIOD      1
 UBDSV06 SAVING              RIV IN MODEL GWF_1            PACKAGE GWF_1           CONNECTED TO MODEL GWF_1            PACKAGE RIV_SYS2         ON UNIT   1018 AT TIME STEP      1, STRESS PERIOD      1

 HEAD WILL BE SAVED ON UNIT 1017 AT END OF TIME STEP    1, STRESS PERIOD    1


  VOLUME BUDGET FOR ENTIRE MODEL AT END OF TIME STEP    1, STRESS PERIOD   1
  ---------------------------------------------------------------------------------------------------

     CUMULATIVE VOLUME      L**3       RATES FOR THIS TIME STEP      L**3/T          PACKAGE NAME    
     ------------------                 ------------------------                     ----------------

           IN:                                      IN:
           ---                                      ---
              STO-SS =       24042.9701                STO-SS =       24042.9701     STORAGE                          
                 DRN =           0.0000                   DRN =           0.0000     DRN_SYS1                         
                 RIV =           0.0000                   RIV =           0.0000     RIV_SYS1                         
                 RIV =           0.0000                   RIV =           0.0000     RIV_SYS2                         
                 RCH =           0.0000                   RCH =           0.0000     RCH_MSW                          

            TOTAL IN =       24042.9701              TOTAL IN =       24042.9701

          OUT:                                     OUT:
          ----                                     ----
              STO-SS =           0.0000                STO-SS =           0.0000     STORAGE                          
                 DRN =         288.3390                   DRN =         288.3390     DRN_SYS1                         
                 RIV =       22915.5846                   RIV =       22915.5846     RIV_SYS1                         
                 RIV =         839.0468                   RIV =         839.0468     RIV_SYS2                         
                 RCH =           0.0000                   RCH =           0.0000     RCH_MSW                          

           TOTAL OUT =       24042.9704             TOTAL OUT =       24042.9704

            IN - OUT =      -2.9475E-04              IN - OUT =      -2.9475E-04

 PERCENT DISCREPANCY =          -0.00     PERCENT DISCREPANCY =          -0.00




         TIME SUMMARY AT END OF TIME STEP    1 IN STRESS PERIOD    1
                    SECONDS     MINUTES      HOURS       DAYS        YEARS
                    -----------------------------------------------------------
   TIME STEP LENGTH  86400.      1440.0      24.000      1.0000     2.73785E-03
 STRESS PERIOD TIME  86400.      1440.0      24.000      1.0000     2.73785E-03
         TOTAL TIME  86400.      1440.0      24.000      1.0000     2.73785E-03


end timestep


start timestep kper="2" kstp="1" mode="normal"

 #Stressperiod Save Options

 BEGIN READING OUTPUT CONTROL FOR STRESS PERIOD 2
      ALL TIME STEPS WILL BE SAVED
      ALL TIME STEPS WILL BE SAVED

 END READING OUTPUT CONTROL FOR STRESS PERIOD 2


 PROCESSING STORAGE PERIOD DATA
 END PROCESSING STORAGE PERIOD DATA


 STRESS PERIOD 2 IS TRANSIENT


 REUSING DRNS FROM LAST STRESS PERIOD

 REUSING RIVS FROM LAST STRESS PERIOD

 REUSING RIVS FROM LAST STRESS PERIOD

 REUSING RCHS FROM LAST STRESS PERIOD
 UBDSV06 SAVING              DRN IN MODEL GWF_1            PACKAGE GWF_1           CONNECTED TO MODEL GWF_1            PACKAGE DRN_SYS1         ON UNIT   1018 AT TIME STEP      1, STRESS PERIOD      2
 UBDSV06 SAVING              RIV IN MODEL GWF_1            PACKAGE GWF_1           CONNECTED TO MODEL GWF_1            PACKAGE RIV_SYS1         ON UNIT   1018 AT TIME STEP      1, STRESS PERIOD      2
 UBDSV06 SAVING              RIV IN MODEL GWF_1            PACKAGE GWF_1           CONNECTED TO MODEL GWF_1            PACKAGE RIV_SYS2         ON UNIT   1018 AT TIME STEP      1, STRESS PERIOD      2

 HEAD WILL BE SAVED ON UNIT 1017 AT END OF TIME STEP    1, STRESS PERIOD    2


  VOLUME BUDGET FOR ENTIRE MODEL AT END OF TIME STEP    1, STRESS PERIOD   2
  ---------------------------------------------------------------------------------------------------

     CUMULATIVE VOLUME      L**3       RATES FOR THIS TIME STEP      L**3/T          PACKAGE NAME    
     ------------------                 ------------------------                     ----------------

           IN:                                      IN:
           ---                                      ---
              STO-SS =       41335.7413                STO-SS =       17292.7712     STORAGE                          
                 DRN =           0.0000                   DRN =           0.0000     DRN_SYS1                         
                 RIV =           0.0000                   RIV =           0.0000     RIV_SYS1                         
                 RIV =           0.0000                   RIV =           0.0000     RIV_SYS2                         
                 RCH =           0.0000                   RCH =           0.0000     RCH_MSW                          

            TOTAL IN =       41335.7413              TOTAL IN =       17292.7712

          OUT:                                     OUT:
          ----                                     ----
              STO-SS =           0.0000                STO-SS =           0.0000     STORAGE                          
                 DRN =         565.3415                   DRN =         277.0025     DRN_SYS1                         
                 RIV =       39139.8772                   RIV =       16224.2926     RIV_SYS1                         
                 RIV =        1630.5272                   RIV =         791.4804     RIV_SYS2                         
                 RCH =           0.0000                   RCH =           0.0000     RCH_MSW                          

           TOTAL OUT =       41335.7458             TOTAL OUT =       17292.7755

            IN - OUT =      -4.5729E-03              IN - OUT =      -4.2782E-03

 PERCENT DISCREPANCY =          -0.00     PERCENT DISCREPANCY =          -0.00




         TIME SUMMARY AT END OF TIME STEP    1 IN STRESS PERIOD    2
                    SECONDS     MINUTES      HOURS       DAYS        YEARS
                    -----------------------------------------------------------
   TIME STEP LENGTH  86400.      1440.0      24.000      1.0000     2.73785E-03
 STRESS PERIOD TIME  86400.      1440.0      24.000      1.0000     2.73785E-03
         TOTAL TIME 1.72800E+05  2880.0      48.000      2.0000     5.47570E-03


end timestep


start timestep kper="3" kstp="1" mode="normal"

 #Stressperiod Save Options

 BEGIN READING OUTPUT CONTROL FOR STRESS PERIOD 3
      ALL TIME STEPS WILL BE SAVED
      ALL TIME STEPS WILL BE SAVED

 END READING OUTPUT CONTROL FOR STRESS PERIOD 3


 PROCESSING STORAGE PERIOD DATA
 END PROCESSING STORAGE PERIOD DATA


 STRESS PERIOD 3 IS TRANSIENT


 REUSING DRNS FROM LAST STRESS PERIOD

 REUSING RIVS FROM LAST STRESS PERIOD

 REUSING RIVS FROM LAST STRESS PERIOD

 REUSING RCHS FROM LAST STRESS PERIOD
 UBDSV06 SAVING              DRN IN MODEL GWF_1            PACKAGE GWF_1           CONNECTED TO MODEL GWF_1            PACKAGE DRN_SYS1         ON UNIT   1018 AT TIME STEP      1, STRESS PERIOD      3
 UBDSV06 SAVING              RIV IN MODEL GWF_1            PACKAGE GWF_1           CONNECTED TO MODEL GWF_1            PACKAGE RIV_SYS1         ON UNIT   1018 AT TIME STEP      1, STRESS PERIOD      3
 UBDSV06 SAVING              RIV IN MODEL GWF_1            PACKAGE GWF_1           CONNECTED TO MODEL GWF_1            PACKAGE RIV_SYS2         ON UNIT   1018 AT TIME STEP      1, STRESS PERIOD      3

 HEAD WILL BE SAVED ON UNIT 1017 AT END OF TIME STEP    1, STRESS PERIOD    3


  VOLUME BUDGET FOR ENTIRE MODEL AT END OF TIME STEP    1, STRESS PERIOD   3
  ---------------------------------------------------------------------------------------------------

     CUMULATIVE VOLUME      L**3       RATES FOR THIS TIME STEP      L**3/T          PACKAGE NAME    
     ------------------                 ------------------------                     ----------------

           IN:                                      IN:
           ---                                      ---
              STO-SS =       55228.3502                STO-SS =       13892.6089     STORAGE                          
                 DRN =           0.0000                   DRN =           0.0000     DRN_SYS1                         
                 RIV =           0.0000                   RIV =           0.0000     RIV_SYS1                         
                 RIV =           0.0000                   RIV =           0.0000     RIV_SYS2                         
                 RCH =           0.0000                   RCH =           0.0000     RCH_MSW                          

            TOTAL IN =       55228.3502              TOTAL IN =       13892.6089

          OUT:                                     OUT:
          ----                                     ----
              STO-SS =           0.0000                STO-SS =           0.0000     STORAGE                          
                 DRN =         830.2358                   DRN =         264.8943     DRN_SYS1                         
                 RIV =       52020.6881                   RIV =       12880.8109     RIV_SYS1                         
                 RIV =        2377.4329                   RIV =         746.9057     RIV_SYS2                         
                 RCH =           0.0000                   RCH =           0.0000     RCH_MSW                          

           TOTAL OUT =       55228.3568             TOTAL OUT =       13892.6110

            IN - OUT =      -6.6637E-03              IN - OUT =      -2.0908E-03

 PERCENT DISCREPANCY =          -0.00     PERCENT DISCREPANCY =          -0.00




         TIME SUMMARY AT END OF TIME STEP    1 IN STRESS PERIOD    3
                    SECONDS     MINUTES      HOURS       DAYS        YEARS
                    -----------------------------------------------------------
   TIME STEP LENGTH  86400.      1440.0      24.000      1.0000     2.73785E-03
 STRESS PERIOD TIME  86400.      1440.0      24.000      1.0000     2.73785E-03
         TOTAL TIME 2.59200E+05  4320.0      72.000      3.0000     8.21355E-03


end timestep


start timestep kper="4" kstp="1" mode="normal"

 #Stressperiod Save Options

 BEGIN READING OUTPUT CONTROL FOR STRESS PERIOD 4
      ALL TIME STEPS WILL BE SAVED
      ALL TIME STEPS WILL BE SAVED

 END READING OUTPUT CONTROL FOR STRESS PERIOD 4


 PROCESSING STORAGE PERIOD DATA
 END PROCESSING STORAGE PERIOD DATA


 STRESS PERIOD 4 IS TRANSIENT


 REUSING DRNS FROM LAST STRESS PERIOD

 REUSING RIVS FROM LAST STRESS PERIOD

 REUSING RIVS FROM LAST STRESS PERIOD

 REUSING RCHS FROM LAST STRESS PERIOD
 UBDSV06 SAVING              DRN IN MODEL GWF_1            PACKAGE GWF_1           CONNECTED TO MODEL GWF_1            PACKAGE DRN_SYS1         ON UNIT   1018 AT TIME STEP      1, STRESS PERIOD      4
 UBDSV06 SAVING              RIV IN MODEL GWF_1            PACKAGE GWF_1           CONNECTED TO MODEL GWF_1            PACKAGE RIV_SYS1         ON UNIT   1018 AT TIME STEP      1, STRESS PERIOD      4
 UBDSV06 SAVING              RIV IN MODEL GWF_1            PACKAGE GWF_1           CONNECTED TO MODEL GWF_1            PACKAGE RIV_SYS2         ON UNIT   1018 AT TIME STEP      1, STRESS PERIOD      4

 HEAD WILL BE SAVED ON UNIT 1017 AT END OF TIME STEP    1, STRESS PERIOD    4


  VOLUME BUDGET FOR ENTIRE MODEL AT END OF TIME STEP    1, STRESS PERIOD   4
  ---------------------------------------------------------------------------------------------------

     CUMULATIVE VOLUME      L**3       RATES FOR THIS TIME STEP      L**3/T          PACKAGE NAME    
     ------------------                 ------------------------                     ----------------

           IN:                                      IN:
           ---                                      ---
              STO-SS =       67066.6711                STO-SS =       11838.3209     STORAGE                          
                 DRN =           0.0000                   DRN =           0.0000     DRN_SYS1                         
                 RIV =           0.0000                   RIV =           0.0000     RIV_SYS1                         
                 RIV =           0.0000                   RIV =           0.0000     RIV_SYS2                         
                 RCH =           0.0000                   RCH =           0.0000     RCH_MSW                          

            TOTAL IN =       67066.6711              TOTAL IN =       11838.3209

          OUT:                                     OUT:
          ----                                     ----
              STO-SS =           0.0000                STO-SS =           0.0000     STORAGE                          
                 DRN =        1082.6380                   DRN =         252.4022     DRN_SYS1                         
                 RIV =       62902.6708                   RIV =       10881.9826     RIV_SYS1                         
                 RIV =        3081.3698                   RIV =         703.9369     RIV_SYS2                         
                 RCH =           0.0000                   RCH =           0.0000     RCH_MSW                          

           TOTAL OUT =       67066.6786             TOTAL OUT =       11838.3218

            IN - OUT =      -7.5129E-03              IN - OUT =      -8.4923E-04

 PERCENT DISCREPANCY =          -0.00     PERCENT DISCREPANCY =          -0.00




         TIME SUMMARY AT END OF TIME STEP    1 IN STRESS PERIOD    4
                    SECONDS     MINUTES      HOURS       DAYS        YEARS
                    -----------------------------------------------------------
   TIME STEP LENGTH  86400.      1440.0      24.000      1.0000     2.73785E-03
 STRESS PERIOD TIME  86400.      1440.0      24.000      1.0000     2.73785E-03
         TOTAL TIME 3.45600E+05  5760.0      96.000      4.0000     1.09514E-02


end timestep


start timestep kper="5" kstp="1" mode="normal"

 #Stressperiod Save Options

 BEGIN READING OUTPUT CONTROL FOR STRESS PERIOD 5
      ALL TIME STEPS WILL BE SAVED
      ALL TIME STEPS WILL BE SAVED

 END READING OUTPUT CONTROL FOR STRESS PERIOD 5


 PROCESSING STORAGE PERIOD DATA
 END PROCESSING STORAGE PERIOD DATA


 STRESS PERIOD 5 IS TRANSIENT


 REUSING DRNS FROM LAST STRESS PERIOD

 REUSING RIVS FROM LAST STRESS PERIOD

 REUSING RIVS FROM LAST STRESS PERIOD

 REUSING RCHS FROM LAST STRESS PERIOD
 UBDSV06 SAVING              DRN IN MODEL GWF_1            PACKAGE GWF_1           CONNECTED TO MODEL GWF_1            PACKAGE DRN_SYS1         ON UNIT   1018 AT TIME STEP      1, STRESS PERIOD      5
 UBDSV06 SAVING              RIV IN MODEL GWF_1            PACKAGE GWF_1           CONNECTED TO MODEL GWF_1            PACKAGE RIV_SYS1         ON UNIT   1018 AT TIME STEP      1, STRESS PERIOD      5
 UBDSV06 SAVING              RIV IN MODEL GWF_1            PACKAGE GWF_1           CONNECTED TO MODEL GWF_1            PACKAGE RIV_SYS2         ON UNIT   1018 AT TIME STEP      1, STRESS PERIOD      5

 HEAD WILL BE SAVED ON UNIT 1017 AT END OF TIME STEP    1, STRESS PERIOD    5


  VOLUME BUDGET FOR ENTIRE MODEL AT END OF TIME STEP    1, STRESS PERIOD   5
  ---------------------------------------------------------------------------------------------------

     CUMULATIVE VOLUME      L**3       RATES FOR THIS TIME STEP      L**3/T          PACKAGE NAME    
     ------------------                 ------------------------                     ----------------

           IN:                                      IN:
           ---                                      ---
              STO-SS =       77487.4540                STO-SS =       10420.7830     STORAGE                          
                 DRN =           0.0000                   DRN =           0.0000     DRN_SYS1                         
                 RIV =           0.0000                   RIV =           0.0000     RIV_SYS1                         
                 RIV =           0.0000                   RIV =           0.0000     RIV_SYS2                         
                 RCH =           0.0000                   RCH =           0.0000     RCH_MSW                          

            TOTAL IN =       77487.4540              TOTAL IN =       10420.7830

          OUT:                                     OUT:
          ----                                     ----
              STO-SS =           0.0000                STO-SS =           0.0000     STORAGE                          
                 DRN =        1322.6320                   DRN =         239.9939     DRN_SYS1                         
                 RIV =       72420.5113                   RIV =        9517.8405     RIV_SYS1                         
                 RIV =        3744.3185                   RIV =         662.9487     RIV_SYS2                         
                 RCH =           0.0000                   RCH =           0.0000     RCH_MSW                          

           TOTAL OUT =       77487.4618             TOTAL OUT =       10420.7832

            IN - OUT =      -7.7125E-03              IN - OUT =      -1.9953E-04

 PERCENT DISCREPANCY =          -0.00     PERCENT DISCREPANCY =          -0.00




         TIME SUMMARY AT END OF TIME STEP    1 IN STRESS PERIOD    5
                    SECONDS     MINUTES      HOURS       DAYS        YEARS
                    -----------------------------------------------------------
   TIME STEP LENGTH  86400.      1440.0      24.000      1.0000     2.73785E-03
 STRESS PERIOD TIME  86400.      1440.0      24.000      1.0000     2.73785E-03
         TOTAL TIME 4.32000E+05  7200.0      120.00      5.0000     1.36893E-02


end timestep


start timestep kper="6" kstp="1" mode="normal"

 #Stressperiod Save Options

 BEGIN READING OUTPUT CONTROL FOR STRESS PERIOD 6
      ALL TIME STEPS WILL BE SAVED
      ALL TIME STEPS WILL BE SAVED

 END READING OUTPUT CONTROL FOR STRESS PERIOD 6


 PROCESSING STORAGE PERIOD DATA
 END PROCESSING STORAGE PERIOD DATA


 STRESS PERIOD 6 IS TRANSIENT


 REUSING DRNS FROM LAST STRESS PERIOD

 REUSING RIVS FROM LAST STRESS PERIOD

 REUSING RIVS FROM LAST STRESS PERIOD

 REUSING RCHS FROM LAST STRESS PERIOD
 UBDSV06 SAVING              DRN IN MODEL GWF_1            PACKAGE GWF_1           CONNECTED TO MODEL GWF_1            PACKAGE DRN_SYS1         ON UNIT   1018 AT TIME STEP      1, STRESS PERIOD      6
 UBDSV06 SAVING              RIV IN MODEL GWF_1            PACKAGE GWF_1           CONNECTED TO MODEL GWF_1            PACKAGE RIV_SYS1         ON UNIT   1018 AT TIME STEP      1, STRESS PERIOD      6
 UBDSV06 SAVING              RIV IN MODEL GWF_1            PACKAGE GWF_1           CONNECTED TO MODEL GWF_1            PACKAGE RIV_SYS2         ON UNIT   1018 AT TIME STEP      1, STRESS PERIOD      6

 HEAD WILL BE SAVED ON UNIT 1017 AT END OF TIME STEP    1, STRESS PERIOD    6


  VOLUME BUDGET FOR ENTIRE MODEL AT END OF TIME STEP    1, STRESS PERIOD   6
  ---------------------------------------------------------------------------------------------------

     CUMULATIVE VOLUME      L**3       RATES FOR THIS TIME STEP      L**3/T          PACKAGE NAME    
     ------------------                 ------------------------                     ----------------

           IN:                                      IN:
           ---                                      ---
              STO-SS =       86840.9285                STO-SS =        9353.4744     STORAGE                          
                 DRN =           0.0000                   DRN =           0.0000     DRN_SYS1                         
                 RIV =           0.0000                   RIV =           0.0000     RIV_SYS1                         
                 RIV =           0.0000                   RIV =           0.0000     RIV_SYS2                         
                 RCH =           0.0000                   RCH =           0.0000     RCH_MSW                          

            TOTAL IN =       86840.9285              TOTAL IN =        9353.4744

          OUT:                                     OUT:
          ----                                     ----
              STO-SS =           0.0000                STO-SS =           0.0000     STORAGE                          
                 DRN =        1550.5981                   DRN =         227.9661     DRN_SYS1                         
                 RIV =       80921.6806                   RIV =        8501.1693     RIV_SYS1                         
                 RIV =        4368.6575                   RIV =         624.3390     RIV_SYS2                         
                 RCH =           0.0000                   RCH =           0.0000     RCH_MSW                          

           TOTAL OUT =       86840.9362             TOTAL OUT =        9353.4744

            IN - OUT =      -7.7115E-03              IN - OUT =       9.3368E-07

 PERCENT DISCREPANCY =          -0.00     PERCENT DISCREPANCY =           0.00




         TIME SUMMARY AT END OF TIME STEP    1 IN STRESS PERIOD    6
                    SECONDS     MINUTES      HOURS       DAYS        YEARS
                    -----------------------------------------------------------
   TIME STEP LENGTH  86400.      1440.0      24.000      1.0000     2.73785E-03
 STRESS PERIOD TIME  86400.      1440.0      24.000      1.0000     2.73785E-03
         TOTAL TIME 5.18400E+05  8640.0      144.00      6.0000     1.64271E-02


end timestep


start timestep kper="7" kstp="1" mode="normal"

 #Stressperiod Save Options

 BEGIN READING OUTPUT CONTROL FOR STRESS PERIOD 7
      ALL TIME STEPS WILL BE SAVED
      ALL TIME STEPS WILL BE SAVED

 END READING OUTPUT CONTROL FOR STRESS PERIOD 7


 PROCESSING STORAGE PERIOD DATA
 END PROCESSING STORAGE PERIOD DATA


 STRESS PERIOD 7 IS TRANSIENT


 REUSING DRNS FROM LAST STRESS PERIOD

 REUSING RIVS FROM LAST STRESS PERIOD

 REUSING RIVS FROM LAST STRESS PERIOD

 REUSING RCHS FROM LAST STRESS PERIOD
 UBDSV06 SAVING              DRN IN MODEL GWF_1            PACKAGE GWF_1           CONNECTED TO MODEL GWF_1            PACKAGE DRN_SYS1         ON UNIT   1018 AT TIME STEP      1, STRESS PERIOD      7
 UBDSV06 SAVING              RIV IN MODEL GWF_1            PACKAGE GWF_1           CONNECTED TO MODEL GWF_1            PACKAGE RIV_SYS1         ON UNIT   1018 AT TIME STEP      1, STRESS PERIOD      7
 UBDSV06 SAVING              RIV IN MODEL GWF_1            PACKAGE GWF_1           CONNECTED TO MODEL GWF_1            PACKAGE RIV_SYS2         ON UNIT   1018 AT TIME STEP      1, STRESS PERIOD      7

 HEAD WILL BE SAVED ON UNIT 1017 AT END OF TIME STEP    1, STRESS PERIOD    7


  VOLUME BUDGET FOR ENTIRE MODEL AT END OF TIME STEP    1, STRESS PERIOD   7
  ---------------------------------------------------------------------------------------------------

     CUMULATIVE VOLUME      L**3       RATES FOR THIS TIME STEP      L**3/T          PACKAGE NAME    
     ------------------                 ------------------------                     ----------------

           IN:                                      IN:
           ---                                      ---
              STO-SS =       95344.0638                STO-SS =        8503.1354     STORAGE                          
                 DRN =           0.0000                   DRN =           0.0000     DRN_SYS1                         
                 RIV =           0.0000                   RIV =           0.0000     RIV_SYS1                         
                 RIV =           0.0000                   RIV =           0.0000     RIV_SYS2                         
                 RCH =           0.0000                   RCH =           0.0000     RCH_MSW                          

            TOTAL IN =       95344.0638              TOTAL IN =        8503.1354

          OUT:                                     OUT:
          ----                                     ----
              STO-SS =           0.0000                STO-SS =           0.0000     STORAGE                          
                 DRN =        1767.0640                   DRN =         216.4659     DRN_SYS1                         
                 RIV =       88620.0879                   RIV =        7698.4073     RIV_SYS1                         
                 RIV =        4956.9197                   RIV =         588.2622     RIV_SYS2                         
                 RCH =           0.0000                   RCH =           0.0000     RCH_MSW                          

           TOTAL OUT =       95344.0715             TOTAL OUT =        8503.1354

            IN - OUT =      -7.7214E-03              IN - OUT =      -9.8898E-06

 PERCENT DISCREPANCY =          -0.00     PERCENT DISCREPANCY =          -0.00




         TIME SUMMARY AT END OF TIME STEP    1 IN STRESS PERIOD    7
                    SECONDS     MINUTES      HOURS       DAYS        YEARS
                    -----------------------------------------------------------
   TIME STEP LENGTH  86400.      1440.0      24.000      1.0000     2.73785E-03
 STRESS PERIOD TIME  86400.      1440.0      24.000      1.0000     2.73785E-03
         TOTAL TIME 6.04800E+05  10080.      168.00      7.0000     1.91650E-02


end timestep


start timestep kper="8" kstp="1" mode="normal"

 #Stressperiod Save Options

 BEGIN READING OUTPUT CONTROL FOR STRESS PERIOD 8
      ALL TIME STEPS WILL BE SAVED
      ALL TIME STEPS WILL BE SAVED

 END READING OUTPUT CONTROL FOR STRESS PERIOD 8


 PROCESSING STORAGE PERIOD DATA
 END PROCESSING STORAGE PERIOD DATA


 STRESS PERIOD 8 IS TRANSIENT


 REUSING DRNS FROM LAST STRESS PERIOD

 REUSING RIVS FROM LAST STRESS PERIOD

 REUSING RIVS FROM LAST STRESS PERIOD

 REUSING RCHS FROM LAST STRESS PERIOD
 UBDSV06 SAVING              DRN IN MODEL GWF_1            PACKAGE GWF_1           CONNECTED TO MODEL GWF_1            PACKAGE DRN_SYS1         ON UNIT   1018 AT TIME STEP      1, STRESS PERIOD      8
 UBDSV06 SAVING              RIV IN MODEL GWF_1            PACKAGE GWF_1           CONNECTED TO MODEL GWF_1            PACKAGE RIV_SYS1         ON UNIT   1018 AT TIME STEP      1, STRESS PERIOD      8
 UBDSV06 SAVING              RIV IN MODEL GWF_1            PACKAGE GWF_1           CONNECTED TO MODEL GWF_1            PACKAGE RIV_SYS2         ON UNIT   1018 AT TIME STEP      1, STRESS PERIOD      8

 HEAD WILL BE SAVED ON UNIT 1017 AT END OF TIME STEP    1, STRESS PERIOD    8


  VOLUME BUDGET FOR ENTIRE MODEL AT END OF TIME STEP    1, STRESS PERIOD   8
  ---------------------------------------------------------------------------------------------------

     CUMULATIVE VOLUME      L**3       RATES FOR THIS TIME STEP      L**3/T          PACKAGE NAME    
     ------------------                 ------------------------                     ----------------

           IN:                                      IN:
           ---                                      ---
              STO-SS =      103143.3345                STO-SS =        7799.2707     STORAGE                          
                 DRN =           0.0000                   DRN =           0.0000     DRN_SYS1                         
                 RIV =           2.7315                   RIV =           2.7315     RIV_SYS1                         
                 RIV =           0.0000                   RIV =           0.0000     RIV_SYS2                         
                 RCH =           0.0000                   RCH =           0.0000     RCH_MSW                          

            TOTAL IN =      103146.0660              TOTAL IN =        7802.0022

          OUT:                                     OUT:
          ----                                     ----
              STO-SS =           0.0000                STO-SS =           0.0000     STORAGE                          
                 DRN =        1972.6122                   DRN =         205.5482     DRN_SYS1                         
                 RIV =       95661.8564                   RIV =        7041.7685     RIV_SYS1                         
                 RIV =        5511.6051                   RIV =         554.6854     RIV_SYS2                         
                 RCH =           0.0000                   RCH =           0.0000     RCH_MSW                          

           TOTAL OUT =      103146.0737             TOTAL OUT =        7802.0022

            IN - OUT =      -7.7515E-03              IN - OUT =      -3.0088E-05

 PERCENT DISCREPANCY =          -0.00     PERCENT DISCREPANCY =          -0.00




         TIME SUMMARY AT END OF TIME STEP    1 IN STRESS PERIOD    8
                    SECONDS     MINUTES      HOURS       DAYS        YEARS
                    -----------------------------------------------------------
   TIME STEP LENGTH  86400.      1440.0      24.000      1.0000     2.73785E-03
 STRESS PERIOD TIME  86400.      1440.0      24.000      1.0000     2.73785E-03
         TOTAL TIME 6.91200E+05  11520.      192.00      8.0000     2.19028E-02


end timestep


start timestep kper="9" kstp="1" mode="normal"

 #Stressperiod Save Options

 BEGIN READING OUTPUT CONTROL FOR STRESS PERIOD 9
      ALL TIME STEPS WILL BE SAVED
      ALL TIME STEPS WILL BE SAVED

 END READING OUTPUT CONTROL FOR STRESS PERIOD 9


 PROCESSING STORAGE PERIOD DATA
 END PROCESSING STORAGE PERIOD DATA


 STRESS PERIOD 9 IS TRANSIENT


 REUSING DRNS FROM LAST STRESS PERIOD

 REUSING RIVS FROM LAST STRESS PERIOD

 REUSING RIVS FROM LAST STRESS PERIOD

 REUSING RCHS FROM LAST STRESS PERIOD
 UBDSV06 SAVING              DRN IN MODEL GWF_1            PACKAGE GWF_1           CONNECTED TO MODEL GWF_1            PACKAGE DRN_SYS1         ON UNIT   1018 AT TIME STEP      1, STRESS PERIOD      9
 UBDSV06 SAVING              RIV IN MODEL GWF_1            PACKAGE GWF_1           CONNECTED TO MODEL GWF_1            PACKAGE RIV_SYS1         ON UNIT   1018 AT TIME STEP      1, STRESS PERIOD      9
 UBDSV06 SAVING              RIV IN MODEL GWF_1            PACKAGE GWF_1           CONNECTED TO MODEL GWF_1            PACKAGE RIV_SYS2         ON UNIT   1018 AT TIME STEP      1, STRESS PERIOD      9

 HEAD WILL BE SAVED ON UNIT 1017 AT END OF TIME STEP    1, STRESS PERIOD    9


  VOLUME BUDGET FOR ENTIRE MODEL AT END OF TIME STEP    1, STRESS PERIOD   9
  ---------------------------------------------------------------------------------------------------

     CUMULATIVE VOLUME      L**3       RATES FOR THIS TIME STEP      L**3/T          PACKAGE NAME    
     ------------------                 ------------------------                     ----------------

           IN:                                      IN:
           ---                                      ---
              STO-SS =      110343.8322                STO-SS =        7200.4977     STORAGE                          
                 DRN =           0.0000                   DRN =           0.0000     DRN_SYS1                         
                 RIV =           8.6876                   RIV =           5.9561     RIV_SYS1                         
                 RIV =           0.0000                   RIV =           0.0000     RIV_SYS2                         
                 RCH =           0.0000                   RCH =           0.0000     RCH_MSW                          

            TOTAL IN =      110352.5198              TOTAL IN =        7206.4539

          OUT:                                     OUT:
          ----                                     ----
              STO-SS =           0.0000                STO-SS =           0.0000     STORAGE                          
                 DRN =        2167.8309                   DRN =         195.2188     DRN_SYS1                         
                 RIV =      102149.6156                   RIV =        6487.7591     RIV_SYS1                         
                 RIV =        6035.0810                   RIV =         523.4759     RIV_SYS2                         
                 RCH =           0.0000                   RCH =           0.0000     RCH_MSW                          

           TOTAL OUT =      110352.5276             TOTAL OUT =        7206.4538

            IN - OUT =      -7.7404E-03              IN - OUT =       1.1109E-05

 PERCENT DISCREPANCY =          -0.00     PERCENT DISCREPANCY =           0.00




         TIME SUMMARY AT END OF TIME STEP    1 IN STRESS PERIOD    9
                    SECONDS     MINUTES      HOURS       DAYS        YEARS
                    -----------------------------------------------------------
   TIME STEP LENGTH  86400.      1440.0      24.000      1.0000     2.73785E-03
 STRESS PERIOD TIME  86400.      1440.0      24.000      1.0000     2.73785E-03
         TOTAL TIME 7.77600E+05  12960.      216.00      9.0000     2.46407E-02


end timestep


start timestep kper="10" kstp="1" mode="normal"

 #Stressperiod Save Options

 BEGIN READING OUTPUT CONTROL FOR STRESS PERIOD 10
      ALL TIME STEPS WILL BE SAVED
      ALL TIME STEPS WILL BE SAVED

 END READING OUTPUT CONTROL FOR STRESS PERIOD 10


 PROCESSING STORAGE PERIOD DATA
 END PROCESSING STORAGE PERIOD DATA


 STRESS PERIOD 10 IS TRANSIENT


 REUSING DRNS FROM LAST STRESS PERIOD

 REUSING RIVS FROM LAST STRESS PERIOD

 REUSING RIVS FROM LAST STRESS PERIOD

 REUSING RCHS FROM LAST STRESS PERIOD
 UBDSV06 SAVING              DRN IN MODEL GWF_1            PACKAGE GWF_1           CONNECTED TO MODEL GWF_1            PACKAGE DRN_SYS1         ON UNIT   1018 AT TIME STEP      1, STRESS PERIOD     10
 UBDSV06 SAVING              RIV IN MODEL GWF_1            PACKAGE GWF_1           CONNECTED TO MODEL GWF_1            PACKAGE RIV_SYS1         ON UNIT   1018 AT TIME STEP      1, STRESS PERIOD     10
 UBDSV06 SAVING              RIV IN MODEL GWF_1            PACKAGE GWF_1           CONNECTED TO MODEL GWF_1            PACKAGE RIV_SYS2         ON UNIT   1018 AT TIME STEP      1, STRESS PERIOD     10

 HEAD WILL BE SAVED ON UNIT 1017 AT END OF TIME STEP    1, STRESS PERIOD   10


  VOLUME BUDGET FOR ENTIRE MODEL AT END OF TIME STEP    1, STRESS PERIOD  10
  ---------------------------------------------------------------------------------------------------

     CUMULATIVE VOLUME      L**3       RATES FOR THIS TIME STEP      L**3/T          PACKAGE NAME    
     ------------------                 ------------------------                     ----------------

           IN:                                      IN:
           ---                                      ---
              STO-SS =      117024.3869                STO-SS =        6680.5547     STORAGE                          
                 DRN =           0.0000                   DRN =           0.0000     DRN_SYS1                         
                 RIV =          30.3814                   RIV =          21.6938     RIV_SYS1                         
                 RIV =           0.0000                   RIV =           0.0000     RIV_SYS2                         
                 RCH =           0.0000                   RCH =           0.0000     RCH_MSW                          

            TOTAL IN =      117054.7683              TOTAL IN =        6702.2485

          OUT:                                     OUT:
          ----                                     ----
              STO-SS =           0.0000                STO-SS =           0.0000     STORAGE                          
                 DRN =        2353.2902                   DRN =         185.4592     DRN_SYS1                         
                 RIV =      108171.9448                   RIV =        6022.3292     RIV_SYS1                         
                 RIV =        6529.5411                   RIV =         494.4600     RIV_SYS2                         
                 RCH =           0.0000                   RCH =           0.0000     RCH_MSW                          

           TOTAL OUT =      117054.7760             TOTAL OUT =        6702.2485

            IN - OUT =      -7.6803E-03              IN - OUT =       6.0099E-05

 PERCENT DISCREPANCY =          -0.00     PERCENT DISCREPANCY =           0.00




         TIME SUMMARY AT END OF TIME STEP    1 IN STRESS PERIOD   10
                    SECONDS     MINUTES      HOURS       DAYS        YEARS
                    -----------------------------------------------------------
   TIME STEP LENGTH  86400.      1440.0      24.000      1.0000     2.73785E-03
 STRESS PERIOD TIME  86400.      1440.0      24.000      1.0000     2.73785E-03
         TOTAL TIME 8.64000E+05  14400.      240.00      10.000     2.73785E-02


end timestep


start timestep kper="11" kstp="1" mode="normal"

 #Stressperiod Save Options

 BEGIN READING OUTPUT CONTROL FOR STRESS PERIOD 11
      ALL TIME STEPS WILL BE SAVED
      ALL TIME STEPS WILL BE SAVED

 END READING OUTPUT CONTROL FOR STRESS PERIOD 11


 PROCESSING STORAGE PERIOD DATA
 END PROCESSING STORAGE PERIOD DATA


 STRESS PERIOD 11 IS TRANSIENT


 REUSING DRNS FROM LAST STRESS PERIOD

 REUSING RIVS FROM LAST STRESS PERIOD

 REUSING RIVS FROM LAST STRESS PERIOD

 REUSING RCHS FROM LAST STRESS PERIOD
 UBDSV06 SAVING              DRN IN MODEL GWF_1            PACKAGE GWF_1           CONNECTED TO MODEL GWF_1            PACKAGE DRN_SYS1         ON UNIT   1018 AT TIME STEP      1, STRESS PERIOD     11
 UBDSV06 SAVING              RIV IN MODEL GWF_1            PACKAGE GWF_1           CONNECTED TO MODEL GWF_1            PACKAGE RIV_SYS1         ON UNIT   1018 AT TIME STEP      1, STRESS PERIOD     11
 UBDSV06 SAVING              RIV IN MODEL GWF_1            PACKAGE GWF_1           CONNECTED TO MODEL GWF_1            PACKAGE RIV_SYS2         ON UNIT   1018 AT TIME STEP      1, STRESS PERIOD     11

 HEAD WILL BE SAVED ON UNIT 1017 AT END OF TIME STEP    1, STRESS PERIOD   11


  VOLUME BUDGET FOR ENTIRE MODEL AT END OF TIME STEP    1, STRESS PERIOD  11
  ---------------------------------------------------------------------------------------------------

     CUMULATIVE VOLUME      L**3       RATES FOR THIS TIME STEP      L**3/T          PACKAGE NAME    
     ------------------                 ------------------------                     ----------------

           IN:                                      IN:
           ---                                      ---
              STO-SS =      123246.1872                STO-SS =        6221.8003     STORAGE                          
                 DRN =           0.0000                   DRN =           0.0000     DRN_SYS1                         
                 RIV =          74.3422                   RIV =          43.9608     RIV_SYS1                         
                 RIV =           0.0000                   RIV =           0.0000     RIV_SYS2                         
                 RCH =           0.0000                   RCH =           0.0000     RCH_MSW                          

            TOTAL IN =      123320.5294              TOTAL IN =        6265.7611

          OUT:                                     OUT:
          ----                                     ----
              STO-SS =           0.0000                STO-SS =           0.0000     STORAGE                          
                 DRN =        2529.5314                   DRN =         176.2413     DRN_SYS1                         
                 RIV =      113794.0081                   RIV =        5622.0633     RIV_SYS1                         
                 RIV =        6996.9975                   RIV =         467.4564     RIV_SYS2                         
                 RCH =           0.0000                   RCH =           0.0000     RCH_MSW                          

           TOTAL OUT =      123320.5370             TOTAL OUT =        6265.7610

            IN - OUT =      -7.5980E-03              IN - OUT =       8.2351E-05

 PERCENT DISCREPANCY =          -0.00     PERCENT DISCREPANCY =           0.00




         TIME SUMMARY AT END OF TIME STEP    1 IN STRESS PERIOD   11
                    SECONDS     MINUTES      HOURS       DAYS        YEARS
                    -----------------------------------------------------------
   TIME STEP LENGTH  86400.      1440.0      24.000      1.0000     2.73785E-03
 STRESS PERIOD TIME  86400.      1440.0      24.000      1.0000     2.73785E-03
         TOTAL TIME 9.50400E+05  15840.      264.00      11.000     3.01164E-02


end timestep


start timestep kper="12" kstp="1" mode="normal"

 #Stressperiod Save Options

 BEGIN READING OUTPUT CONTROL FOR STRESS PERIOD 12
      ALL TIME STEPS WILL BE SAVED
      ALL TIME STEPS WILL BE SAVED

 END READING OUTPUT CONTROL FOR STRESS PERIOD 12


 PROCESSING STORAGE PERIOD DATA
 END PROCESSING STORAGE PERIOD DATA


 STRESS PERIOD 12 IS TRANSIENT


 REUSING DRNS FROM LAST STRESS PERIOD

 REUSING RIVS FROM LAST STRESS PERIOD

 REUSING RIVS FROM LAST STRESS PERIOD

 REUSING RCHS FROM LAST STRESS PERIOD
 UBDSV06 SAVING              DRN IN MODEL GWF_1            PACKAGE GWF_1           CONNECTED TO MODEL GWF_1            PACKAGE DRN_SYS1         ON UNIT   1018 AT TIME STEP      1, STRESS PERIOD     12
 UBDSV06 SAVING              RIV IN MODEL GWF_1            PACKAGE GWF_1           CONNECTED TO MODEL GWF_1            PACKAGE RIV_SYS1         ON UNIT   1018 AT TIME STEP      1, STRESS PERIOD     12
 UBDSV06 SAVING              RIV IN MODEL GWF_1            PACKAGE GWF_1           CONNECTED TO MODEL GWF_1            PACKAGE RIV_SYS2         ON UNIT   1018 AT TIME STEP      1, STRESS PERIOD     12

 HEAD WILL BE SAVED ON UNIT 1017 AT END OF TIME STEP    1, STRESS PERIOD   12


  VOLUME BUDGET FOR ENTIRE MODEL AT END OF TIME STEP    1, STRESS PERIOD  12
  ---------------------------------------------------------------------------------------------------

     CUMULATIVE VOLUME      L**3       RATES FOR THIS TIME STEP      L**3/T          PACKAGE NAME    
     ------------------                 ------------------------                     ----------------

           IN:                                      IN:
           ---                                      ---
              STO-SS =      129058.0619                STO-SS =        5811.8747     STORAGE                          
                 DRN =           0.0000                   DRN =           0.0000     DRN_SYS1                         
                 RIV =         141.8956                   RIV =          67.5534     RIV_SYS1                         
                 RIV =           0.0000                   RIV =           0.0000     RIV_SYS2                         
                 RCH =           0.0000                   RCH =           0.0000     RCH_MSW                          

            TOTAL IN =      129199.9575              TOTAL IN =        5879.4281

          OUT:                                     OUT:
          ----                                     ----
              STO-SS =           0.0000                STO-SS =           0.0000     STORAGE                          
                 DRN =        2697.0646                   DRN =         167.5331     DRN_SYS1                         
                 RIV =      119063.6109                   RIV =        5269.6028     RIV_SYS1                         
                 RIV =        7439.2896                   RIV =         442.2921     RIV_SYS2                         
                 RCH =           0.0000                   RCH =           0.0000     RCH_MSW                          

           TOTAL OUT =      129199.9650             TOTAL OUT =        5879.4280

            IN - OUT =      -7.5181E-03              IN - OUT =       7.9802E-05

 PERCENT DISCREPANCY =          -0.00     PERCENT DISCREPANCY =           0.00




         TIME SUMMARY AT END OF TIME STEP    1 IN STRESS PERIOD   12
                    SECONDS     MINUTES      HOURS       DAYS        YEARS
                    -----------------------------------------------------------
   TIME STEP LENGTH  86400.      1440.0      24.000      1.0000     2.73785E-03
 STRESS PERIOD TIME  86400.      1440.0      24.000      1.0000     2.73785E-03
         TOTAL TIME 1.03680E+06  17280.      288.00      12.000     3.28542E-02


end timestep


start timestep kper="13" kstp="1" mode="normal"

 #Stressperiod Save Options

 BEGIN READING OUTPUT CONTROL FOR STRESS PERIOD 13
      ALL TIME STEPS WILL BE SAVED
      ALL TIME STEPS WILL BE SAVED

 END READING OUTPUT CONTROL FOR STRESS PERIOD 13


 PROCESSING STORAGE PERIOD DATA
 END PROCESSING STORAGE PERIOD DATA


 STRESS PERIOD 13 IS TRANSIENT


 REUSING DRNS FROM LAST STRESS PERIOD

 REUSING RIVS FROM LAST STRESS PERIOD

 REUSING RIVS FROM LAST STRESS PERIOD

 REUSING RCHS FROM LAST STRESS PERIOD
 UBDSV06 SAVING              DRN IN MODEL GWF_1            PACKAGE GWF_1           CONNECTED TO MODEL GWF_1            PACKAGE DRN_SYS1         ON UNIT   1018 AT TIME STEP      1, STRESS PERIOD     13
 UBDSV06 SAVING              RIV IN MODEL GWF_1            PACKAGE GWF_1           CONNECTED TO MODEL GWF_1            PACKAGE RIV_SYS1         ON UNIT   1018 AT TIME STEP      1, STRESS PERIOD     13
 UBDSV06 SAVING              RIV IN MODEL GWF_1            PACKAGE GWF_1           CONNECTED TO MODEL GWF_1            PACKAGE RIV_SYS2         ON UNIT   1018 AT TIME STEP      1, STRESS PERIOD     13

 HEAD WILL BE SAVED ON UNIT 1017 AT END OF TIME STEP    1, STRESS PERIOD   13


  VOLUME BUDGET FOR ENTIRE MODEL AT END OF TIME STEP    1, STRESS PERIOD  13
  ---------------------------------------------------------------------------------------------------

     CUMULATIVE VOLUME      L**3       RATES FOR THIS TIME STEP      L**3/T          PACKAGE NAME    
     ------------------                 ------------------------                     ----------------

           IN:                                      IN:
           ---                                      ---
              STO-SS =      134499.8952                STO-SS =        5441.8333     STORAGE                          
                 DRN =           0.0000                   DRN =           0.0000     DRN_SYS1                         
                 RIV =         238.2489                   RIV =          96.3532     RIV_SYS1                         
                 RIV =           0.0000                   RIV =           0.0000     RIV_SYS2                         
                 RCH =           0.0000                   RCH =           0.0000     RCH_MSW                          

            TOTAL IN =      134738.1441              TOTAL IN =        5538.1865

          OUT:                                     OUT:
          ----                                     ----
              STO-SS =           0.0000                STO-SS =           0.0000     STORAGE                          
                 DRN =        2856.3678                   DRN =         159.3032     DRN_SYS1                         
                 RIV =      124023.6856                   RIV =        4960.0747     RIV_SYS1                         
                 RIV =        7858.0981                   RIV =         418.8085     RIV_SYS2                         
                 RCH =           0.0000                   RCH =           0.0000     RCH_MSW                          

           TOTAL OUT =      134738.1515             TOTAL OUT =        5538.1865

            IN - OUT =      -7.4553E-03              IN - OUT =       6.2845E-05

 PERCENT DISCREPANCY =          -0.00     PERCENT DISCREPANCY =           0.00




         TIME SUMMARY AT END OF TIME STEP    1 IN STRESS PERIOD   13
                    SECONDS     MINUTES      HOURS       DAYS        YEARS
                    -----------------------------------------------------------
   TIME STEP LENGTH  86400.      1440.0      24.000      1.0000     2.73785E-03
 STRESS PERIOD TIME  86400.      1440.0      24.000      1.0000     2.73785E-03
         TOTAL TIME 1.12320E+06  18720.      312.00      13.000     3.55921E-02


end timestep


start timestep kper="14" kstp="1" mode="normal"

 #Stressperiod Save Options

 BEGIN READING OUTPUT CONTROL FOR STRESS PERIOD 14
      ALL TIME STEPS WILL BE SAVED
      ALL TIME STEPS WILL BE SAVED

 END READING OUTPUT CONTROL FOR STRESS PERIOD 14


 PROCESSING STORAGE PERIOD DATA
 END PROCESSING STORAGE PERIOD DATA


 STRESS PERIOD 14 IS TRANSIENT


 REUSING DRNS FROM LAST STRESS PERIOD

 REUSING RIVS FROM LAST STRESS PERIOD

 REUSING RIVS FROM LAST STRESS PERIOD

 REUSING RCHS FROM LAST STRESS PERIOD
 UBDSV06 SAVING              DRN IN MODEL GWF_1            PACKAGE GWF_1           CONNECTED TO MODEL GWF_1            PACKAGE DRN_SYS1         ON UNIT   1018 AT TIME STEP      1, STRESS PERIOD     14
 UBDSV06 SAVING              RIV IN MODEL GWF_1            PACKAGE GWF_1           CONNECTED TO MODEL GWF_1            PACKAGE RIV_SYS1         ON UNIT   1018 AT TIME STEP      1, STRESS PERIOD     14
 UBDSV06 SAVING              RIV IN MODEL GWF_1            PACKAGE GWF_1           CONNECTED TO MODEL GWF_1            PACKAGE RIV_SYS2         ON UNIT   1018 AT TIME STEP      1, STRESS PERIOD     14

 HEAD WILL BE SAVED ON UNIT 1017 AT END OF TIME STEP    1, STRESS PERIOD   14


  VOLUME BUDGET FOR ENTIRE MODEL AT END OF TIME STEP    1, STRESS PERIOD  14
  ---------------------------------------------------------------------------------------------------

     CUMULATIVE VOLUME      L**3       RATES FOR THIS TIME STEP      L**3/T          PACKAGE NAME    
     ------------------                 ------------------------                     ----------------

           IN:                                      IN:
           ---                                      ---
              STO-SS =      139604.9273                STO-SS =        5105.0321     STORAGE                          
                 DRN =           0.0000                   DRN =           0.0000     DRN_SYS1                         
                 RIV =         367.5272                   RIV =         129.2784     RIV_SYS1                         
                 RIV =           0.0000                   RIV =           0.0000     RIV_SYS2                         
                 RCH =           0.0000                   RCH =           0.0000     RCH_MSW                          

            TOTAL IN =      139972.4546              TOTAL IN =        5234.3105

          OUT:                                     OUT:
          ----                                     ----
              STO-SS =           0.0000                STO-SS =           0.0000     STORAGE                          
                 DRN =        3007.8894                   DRN =         151.5216     DRN_SYS1                         
                 RIV =      128709.6111                   RIV =        4685.9255     RIV_SYS1                         
                 RIV =        8254.9615                   RIV =         396.8634     RIV_SYS2                         
                 RCH =           0.0000                   RCH =           0.0000     RCH_MSW                          

           TOTAL OUT =      139972.4620             TOTAL OUT =        5234.3105

            IN - OUT =      -7.4158E-03              IN - OUT =       3.9469E-05

 PERCENT DISCREPANCY =          -0.00     PERCENT DISCREPANCY =           0.00




         TIME SUMMARY AT END OF TIME STEP    1 IN STRESS PERIOD   14
                    SECONDS     MINUTES      HOURS       DAYS        YEARS
                    -----------------------------------------------------------
   TIME STEP LENGTH  86400.      1440.0      24.000      1.0000     2.73785E-03
 STRESS PERIOD TIME  86400.      1440.0      24.000      1.0000     2.73785E-03
         TOTAL TIME 1.20960E+06  20160.      336.00      14.000     3.83299E-02


end timestep


start timestep kper="15" kstp="1" mode="normal"

 #Stressperiod Save Options

 BEGIN READING OUTPUT CONTROL FOR STRESS PERIOD 15
      ALL TIME STEPS WILL BE SAVED
      ALL TIME STEPS WILL BE SAVED

 END READING OUTPUT CONTROL FOR STRESS PERIOD 15


 PROCESSING STORAGE PERIOD DATA
 END PROCESSING STORAGE PERIOD DATA


 STRESS PERIOD 15 IS TRANSIENT


 REUSING DRNS FROM LAST STRESS PERIOD

 REUSING RIVS FROM LAST STRESS PERIOD

 REUSING RIVS FROM LAST STRESS PERIOD

 REUSING RCHS FROM LAST STRESS PERIOD
 UBDSV06 SAVING              DRN IN MODEL GWF_1            PACKAGE GWF_1           CONNECTED TO MODEL GWF_1            PACKAGE DRN_SYS1         ON UNIT   1018 AT TIME STEP      1, STRESS PERIOD     15
 UBDSV06 SAVING              RIV IN MODEL GWF_1            PACKAGE GWF_1           CONNECTED TO MODEL GWF_1            PACKAGE RIV_SYS1         ON UNIT   1018 AT TIME STEP      1, STRESS PERIOD     15
 UBDSV06 SAVING              RIV IN MODEL GWF_1            PACKAGE GWF_1           CONNECTED TO MODEL GWF_1            PACKAGE RIV_SYS2         ON UNIT   1018 AT TIME STEP      1, STRESS PERIOD     15

 HEAD WILL BE SAVED ON UNIT 1017 AT END OF TIME STEP    1, STRESS PERIOD   15


  VOLUME BUDGET FOR ENTIRE MODEL AT END OF TIME STEP    1, STRESS PERIOD  15
  ---------------------------------------------------------------------------------------------------

     CUMULATIVE VOLUME      L**3       RATES FOR THIS TIME STEP      L**3/T          PACKAGE NAME    
     ------------------                 ------------------------                     ----------------

           IN:                                      IN:
           ---                                      ---
              STO-SS =      144401.3525                STO-SS =        4796.4251     STORAGE                          
                 DRN =           0.0000                   DRN =           0.0000     DRN_SYS1                         
                 RIV =         534.1349                   RIV =         166.6076     RIV_SYS1                         
                 RIV =           0.0000                   RIV =           0.0000     RIV_SYS2                         
                 RCH =           0.0000                   RCH =           0.0000     RCH_MSW                          

            TOTAL IN =      144935.4873              TOTAL IN =        4963.0327

          OUT:                                     OUT:
          ----                                     ----
              STO-SS =           0.0000                STO-SS =           0.0000     STORAGE                          
                 DRN =        3152.0497                   DRN =         144.1603     DRN_SYS1                         
                 RIV =      133152.1535                   RIV =        4442.5424     RIV_SYS1                         
                 RIV =        8631.2916                   RIV =         376.3300     RIV_SYS2                         
                 RCH =           0.0000                   RCH =           0.0000     RCH_MSW                          

           TOTAL OUT =      144935.4947             TOTAL OUT =        4963.0327

            IN - OUT =      -7.4014E-03              IN - OUT =       1.4414E-05

 PERCENT DISCREPANCY =          -0.00     PERCENT DISCREPANCY =           0.00




         TIME SUMMARY AT END OF TIME STEP    1 IN STRESS PERIOD   15
                    SECONDS     MINUTES      HOURS       DAYS        YEARS
                    -----------------------------------------------------------
   TIME STEP LENGTH  86400.      1440.0      24.000      1.0000     2.73785E-03
 STRESS PERIOD TIME  86400.      1440.0      24.000      1.0000     2.73785E-03
         TOTAL TIME 1.29600E+06  21600.      360.00      15.000     4.10678E-02


end timestep


start timestep kper="16" kstp="1" mode="normal"

 #Stressperiod Save Options

 BEGIN READING OUTPUT CONTROL FOR STRESS PERIOD 16
      ALL TIME STEPS WILL BE SAVED
      ALL TIME STEPS WILL BE SAVED

 END READING OUTPUT CONTROL FOR STRESS PERIOD 16


 PROCESSING STORAGE PERIOD DATA
 END PROCESSING STORAGE PERIOD DATA


 STRESS PERIOD 16 IS TRANSIENT


 REUSING DRNS FROM LAST STRESS PERIOD

 REUSING RIVS FROM LAST STRESS PERIOD

 REUSING RIVS FROM LAST STRESS PERIOD

 REUSING RCHS FROM LAST STRESS PERIOD
 UBDSV06 SAVING              DRN IN MODEL GWF_1            PACKAGE GWF_1           CONNECTED TO MODEL GWF_1            PACKAGE DRN_SYS1         ON UNIT   1018 AT TIME STEP      1, STRESS PERIOD     16
 UBDSV06 SAVING              RIV IN MODEL GWF_1            PACKAGE GWF_1           CONNECTED TO MODEL GWF_1            PACKAGE RIV_SYS1         ON UNIT   1018 AT TIME STEP      1, STRESS PERIOD     16
 UBDSV06 SAVING              RIV IN MODEL GWF_1            PACKAGE GWF_1           CONNECTED TO MODEL GWF_1            PACKAGE RIV_SYS2         ON UNIT   1018 AT TIME STEP      1, STRESS PERIOD     16

 HEAD WILL BE SAVED ON UNIT 1017 AT END OF TIME STEP    1, STRESS PERIOD   16


  VOLUME BUDGET FOR ENTIRE MODEL AT END OF TIME STEP    1, STRESS PERIOD  16
  ---------------------------------------------------------------------------------------------------

     CUMULATIVE VOLUME      L**3       RATES FOR THIS TIME STEP      L**3/T          PACKAGE NAME    
     ------------------                 ------------------------                     ----------------

           IN:                                      IN:
           ---                                      ---
              STO-SS =      148913.4560                STO-SS =        4512.1035     STORAGE                          
                 DRN =           0.0000                   DRN =           0.0000     DRN_SYS1                         
                 RIV =         734.8097                   RIV =         200.6748     RIV_SYS1                         
                 RIV =           0.0000                   RIV =           0.0000     RIV_SYS2                         
                 RCH =           0.0000                   RCH =           0.0000     RCH_MSW                          

            TOTAL IN =      149648.2656              TOTAL IN =        4712.7783

          OUT:                                     OUT:
          ----                                     ----
              STO-SS =           0.0000                STO-SS =           0.0000     STORAGE                          
                 DRN =        3289.2430                   DRN =         137.1933     DRN_SYS1                         
                 RIV =      137370.6429                   RIV =        4218.4894     RIV_SYS1                         
                 RIV =        8988.3871                   RIV =         357.0956     RIV_SYS2                         
                 RCH =           0.0000                   RCH =           0.0000     RCH_MSW                          

           TOTAL OUT =      149648.2731             TOTAL OUT =        4712.7783

            IN - OUT =      -7.4112E-03              IN - OUT =      -9.7664E-06

 PERCENT DISCREPANCY =          -0.00     PERCENT DISCREPANCY =          -0.00




         TIME SUMMARY AT END OF TIME STEP    1 IN STRESS PERIOD   16
                    SECONDS     MINUTES      HOURS       DAYS        YEARS
                    -----------------------------------------------------------
   TIME STEP LENGTH  86400.      1440.0      24.000      1.0000     2.73785E-03
 STRESS PERIOD TIME  86400.      1440.0      24.000      1.0000     2.73785E-03
         TOTAL TIME 1.38240E+06  23040.      384.00      16.000     4.38056E-02


end timestep


start timestep kper="17" kstp="1" mode="normal"

 #Stressperiod Save Options

 BEGIN READING OUTPUT CONTROL FOR STRESS PERIOD 17
      ALL TIME STEPS WILL BE SAVED
      ALL TIME STEPS WILL BE SAVED

 END READING OUTPUT CONTROL FOR STRESS PERIOD 17


 PROCESSING STORAGE PERIOD DATA
 END PROCESSING STORAGE PERIOD DATA


 STRESS PERIOD 17 IS TRANSIENT


 REUSING DRNS FROM LAST STRESS PERIOD

 REUSING RIVS FROM LAST STRESS PERIOD

 REUSING RIVS FROM LAST STRESS PERIOD

 REUSING RCHS FROM LAST STRESS PERIOD
 UBDSV06 SAVING              DRN IN MODEL GWF_1            PACKAGE GWF_1           CONNECTED TO MODEL GWF_1            PACKAGE DRN_SYS1         ON UNIT   1018 AT TIME STEP      1, STRESS PERIOD     17
 UBDSV06 SAVING              RIV IN MODEL GWF_1            PACKAGE GWF_1           CONNECTED TO MODEL GWF_1            PACKAGE RIV_SYS1         ON UNIT   1018 AT TIME STEP      1, STRESS PERIOD     17
 UBDSV06 SAVING              RIV IN MODEL GWF_1            PACKAGE GWF_1           CONNECTED TO MODEL GWF_1            PACKAGE RIV_SYS2         ON UNIT   1018 AT TIME STEP      1, STRESS PERIOD     17

 HEAD WILL BE SAVED ON UNIT 1017 AT END OF TIME STEP    1, STRESS PERIOD   17


  VOLUME BUDGET FOR ENTIRE MODEL AT END OF TIME STEP    1, STRESS PERIOD  17
  ---------------------------------------------------------------------------------------------------

     CUMULATIVE VOLUME      L**3       RATES FOR THIS TIME STEP      L**3/T          PACKAGE NAME    
     ------------------                 ------------------------                     ----------------

           IN:                                      IN:
           ---                                      ---
              STO-SS =      153162.4405                STO-SS =        4248.9846     STORAGE                          
                 DRN =           0.0000                   DRN =           0.0000     DRN_SYS1                         
                 RIV =         982.6785                   RIV =         247.8689     RIV_SYS1                         
                 RIV =           0.0000                   RIV =           0.0000     RIV_SYS2                         
                 RCH =           0.0000                   RCH =           0.0000     RCH_MSW                          

            TOTAL IN =      154145.1191              TOTAL IN =        4496.8534

          OUT:                                     OUT:
          ----                                     ----
              STO-SS =           0.0000                STO-SS =           0.0000     STORAGE                          
                 DRN =        3419.8401                   DRN =         130.5970     DRN_SYS1                         
                 RIV =      141397.8397                   RIV =        4027.1968     RIV_SYS1                         
                 RIV =        9327.4467                   RIV =         339.0596     RIV_SYS2                         
                 RCH =           0.0000                   RCH =           0.0000     RCH_MSW                          

           TOTAL OUT =      154145.1265             TOTAL OUT =        4496.8535

            IN - OUT =      -7.4430E-03              IN - OUT =      -3.1792E-05

 PERCENT DISCREPANCY =          -0.00     PERCENT DISCREPANCY =          -0.00




         TIME SUMMARY AT END OF TIME STEP    1 IN STRESS PERIOD   17
                    SECONDS     MINUTES      HOURS       DAYS        YEARS
                    -----------------------------------------------------------
   TIME STEP LENGTH  86400.      1440.0      24.000      1.0000     2.73785E-03
 STRESS PERIOD TIME  86400.      1440.0      24.000      1.0000     2.73785E-03
         TOTAL TIME 1.46880E+06  24480.      408.00      17.000     4.65435E-02


end timestep


start timestep kper="18" kstp="1" mode="normal"

 #Stressperiod Save Options

 BEGIN READING OUTPUT CONTROL FOR STRESS PERIOD 18
      ALL TIME STEPS WILL BE SAVED
      ALL TIME STEPS WILL BE SAVED

 END READING OUTPUT CONTROL FOR STRESS PERIOD 18


 PROCESSING STORAGE PERIOD DATA
 END PROCESSING STORAGE PERIOD DATA


 STRESS PERIOD 18 IS TRANSIENT


 REUSING DRNS FROM LAST STRESS PERIOD

 REUSING RIVS FROM LAST STRESS PERIOD

 REUSING RIVS FROM LAST STRESS PERIOD

 REUSING RCHS FROM LAST STRESS PERIOD
 UBDSV06 SAVING              DRN IN MODEL GWF_1            PACKAGE GWF_1           CONNECTED TO MODEL GWF_1            PACKAGE DRN_SYS1         ON UNIT   1018 AT TIME STEP      1, STRESS PERIOD     18
 UBDSV06 SAVING              RIV IN MODEL GWF_1            PACKAGE GWF_1           CONNECTED TO MODEL GWF_1            PACKAGE RIV_SYS1         ON UNIT   1018 AT TIME STEP      1, STRESS PERIOD     18
 UBDSV06 SAVING              RIV IN MODEL GWF_1            PACKAGE GWF_1           CONNECTED TO MODEL GWF_1            PACKAGE RIV_SYS2         ON UNIT   1018 AT TIME STEP      1, STRESS PERIOD     18

 HEAD WILL BE SAVED ON UNIT 1017 AT END OF TIME STEP    1, STRESS PERIOD   18


  VOLUME BUDGET FOR ENTIRE MODEL AT END OF TIME STEP    1, STRESS PERIOD  18
  ---------------------------------------------------------------------------------------------------

     CUMULATIVE VOLUME      L**3       RATES FOR THIS TIME STEP      L**3/T          PACKAGE NAME    
     ------------------                 ------------------------                     ----------------

           IN:                                      IN:
           ---                                      ---
              STO-SS =      157167.0356                STO-SS =        4004.5951     STORAGE                          
                 DRN =           0.0000                   DRN =           0.0000     DRN_SYS1                         
                 RIV =        1275.8392                   RIV =         293.1606     RIV_SYS1                         
                 RIV =           0.0000                   RIV =           0.0000     RIV_SYS2                         
                 RCH =           0.0000                   RCH =           0.0000     RCH_MSW                          

            TOTAL IN =      158442.8748              TOTAL IN =        4297.7558

          OUT:                                     OUT:
          ----                                     ----
              STO-SS =           0.0000                STO-SS =           0.0000     STORAGE                          
                 DRN =        3544.1895                   DRN =         124.3495     DRN_SYS1                         
                 RIV =      145249.1139                   RIV =        3851.2742     RIV_SYS1                         
                 RIV =        9649.5788                   RIV =         322.1321     RIV_SYS2                         
                 RCH =           0.0000                   RCH =           0.0000     RCH_MSW                          

           TOTAL OUT =      158442.8823             TOTAL OUT =        4297.7558

            IN - OUT =      -7.4941E-03              IN - OUT =      -5.1102E-05

 PERCENT DISCREPANCY =          -0.00     PERCENT DISCREPANCY =          -0.00




         TIME SUMMARY AT END OF TIME STEP    1 IN STRESS PERIOD   18
                    SECONDS     MINUTES      HOURS       DAYS        YEARS
                    -----------------------------------------------------------
   TIME STEP LENGTH  86400.      1440.0      24.000      1.0000     2.73785E-03
 STRESS PERIOD TIME  86400.      1440.0      24.000      1.0000     2.73785E-03
         TOTAL TIME 1.55520E+06  25920.      432.00      18.000     4.92813E-02


end timestep


start timestep kper="19" kstp="1" mode="normal"

 #Stressperiod Save Options

 BEGIN READING OUTPUT CONTROL FOR STRESS PERIOD 19
      ALL TIME STEPS WILL BE SAVED
      ALL TIME STEPS WILL BE SAVED

 END READING OUTPUT CONTROL FOR STRESS PERIOD 19


 PROCESSING STORAGE PERIOD DATA
 END PROCESSING STORAGE PERIOD DATA


 STRESS PERIOD 19 IS TRANSIENT


 REUSING DRNS FROM LAST STRESS PERIOD

 REUSING RIVS FROM LAST STRESS PERIOD

 REUSING RIVS FROM LAST STRESS PERIOD

 REUSING RCHS FROM LAST STRESS PERIOD
 UBDSV06 SAVING              DRN IN MODEL GWF_1            PACKAGE GWF_1           CONNECTED TO MODEL GWF_1            PACKAGE DRN_SYS1         ON UNIT   1018 AT TIME STEP      1, STRESS PERIOD     19
 UBDSV06 SAVING              RIV IN MODEL GWF_1            PACKAGE GWF_1           CONNECTED TO MODEL GWF_1            PACKAGE RIV_SYS1         ON UNIT   1018 AT TIME STEP      1, STRESS PERIOD     19
 UBDSV06 SAVING              RIV IN MODEL GWF_1            PACKAGE GWF_1           CONNECTED TO MODEL GWF_1            PACKAGE RIV_SYS2         ON UNIT   1018 AT TIME STEP      1, STRESS PERIOD     19

 HEAD WILL BE SAVED ON UNIT 1017 AT END OF TIME STEP    1, STRESS PERIOD   19


  VOLUME BUDGET FOR ENTIRE MODEL AT END OF TIME STEP    1, STRESS PERIOD  19
  ---------------------------------------------------------------------------------------------------

     CUMULATIVE VOLUME      L**3       RATES FOR THIS TIME STEP      L**3/T          PACKAGE NAME    
     ------------------                 ------------------------                     ----------------

           IN:                                      IN:
           ---                                      ---
              STO-SS =      160943.9548                STO-SS =        3776.9192     STORAGE                          
                 DRN =           0.0000                   DRN =           0.0000     DRN_SYS1                         
                 RIV =        1615.5101                   RIV =         339.6709     RIV_SYS1                         
                 RIV =           0.0000                   RIV =           0.0000     RIV_SYS2                         
                 RCH =           0.0000                   RCH =           0.0000     RCH_MSW                          

            TOTAL IN =      162559.4649              TOTAL IN =        4116.5900

          OUT:                                     OUT:
          ----                                     ----
              STO-SS =           0.0000                STO-SS =           0.0000     STORAGE                          
                 DRN =        3662.6199                   DRN =         118.4304     DRN_SYS1                         
                 RIV =      148941.0413                   RIV =        3691.9273     RIV_SYS1                         
                 RIV =        9955.8112                   RIV =         306.2324     RIV_SYS2                         
                 RCH =           0.0000                   RCH =           0.0000     RCH_MSW                          

           TOTAL OUT =      162559.4724             TOTAL OUT =        4116.5901

            IN - OUT =      -7.5616E-03              IN - OUT =      -6.7537E-05

 PERCENT DISCREPANCY =          -0.00     PERCENT DISCREPANCY =          -0.00




         TIME SUMMARY AT END OF TIME STEP    1 IN STRESS PERIOD   19
                    SECONDS     MINUTES      HOURS       DAYS        YEARS
                    -----------------------------------------------------------
   TIME STEP LENGTH  86400.      1440.0      24.000      1.0000     2.73785E-03
 STRESS PERIOD TIME  86400.      1440.0      24.000      1.0000     2.73785E-03
         TOTAL TIME 1.64160E+06  27360.      456.00      19.000     5.20192E-02


end timestep


start timestep kper="20" kstp="1" mode="normal"

 #Stressperiod Save Options

 BEGIN READING OUTPUT CONTROL FOR STRESS PERIOD 20
      ALL TIME STEPS WILL BE SAVED
      ALL TIME STEPS WILL BE SAVED

 END READING OUTPUT CONTROL FOR STRESS PERIOD 20


 PROCESSING STORAGE PERIOD DATA
 END PROCESSING STORAGE PERIOD DATA


 STRESS PERIOD 20 IS TRANSIENT


 REUSING DRNS FROM LAST STRESS PERIOD

 REUSING RIVS FROM LAST STRESS PERIOD

 REUSING RIVS FROM LAST STRESS PERIOD

 REUSING RCHS FROM LAST STRESS PERIOD
 UBDSV06 SAVING              DRN IN MODEL GWF_1            PACKAGE GWF_1           CONNECTED TO MODEL GWF_1            PACKAGE DRN_SYS1         ON UNIT   1018 AT TIME STEP      1, STRESS PERIOD     20
 UBDSV06 SAVING              RIV IN MODEL GWF_1            PACKAGE GWF_1           CONNECTED TO MODEL GWF_1            PACKAGE RIV_SYS1         ON UNIT   1018 AT TIME STEP      1, STRESS PERIOD     20
 UBDSV06 SAVING              RIV IN MODEL GWF_1            PACKAGE GWF_1           CONNECTED TO MODEL GWF_1            PACKAGE RIV_SYS2         ON UNIT   1018 AT TIME STEP      1, STRESS PERIOD     20

 HEAD WILL BE SAVED ON UNIT 1017 AT END OF TIME STEP    1, STRESS PERIOD   20


  VOLUME BUDGET FOR ENTIRE MODEL AT END OF TIME STEP    1, STRESS PERIOD  20
  ---------------------------------------------------------------------------------------------------

     CUMULATIVE VOLUME      L**3       RATES FOR THIS TIME STEP      L**3/T          PACKAGE NAME    
     ------------------                 ------------------------                     ----------------

           IN:                                      IN:
           ---                                      ---
              STO-SS =      164508.2428                STO-SS =        3564.2880     STORAGE                          
                 DRN =           0.0000                   DRN =           0.0000     DRN_SYS1                         
                 RIV =        2001.6833                   RIV =         386.1732     RIV_SYS1                         
                 RIV =           0.0000                   RIV =           0.0000     RIV_SYS2                         
                 RCH =           0.0000                   RCH =           0.0000     RCH_MSW                          

            TOTAL IN =      166509.9261              TOTAL IN =        3950.4613

          OUT:                                     OUT:
          ----                                     ----
              STO-SS =           0.0000                STO-SS =           0.0000     STORAGE                          
                 DRN =        3775.4410                   DRN =         112.8211     DRN_SYS1                         
                 RIV =      152487.3939                   RIV =        3546.3526     RIV_SYS1                         
                 RIV =       10247.0988                   RIV =         291.2876     RIV_SYS2                         
                 RCH =           0.0000                   RCH =           0.0000     RCH_MSW                          

           TOTAL OUT =      166509.9338             TOTAL OUT =        3950.4613

            IN - OUT =      -7.6428E-03              IN - OUT =      -8.1162E-05

 PERCENT DISCREPANCY =          -0.00     PERCENT DISCREPANCY =          -0.00




         TIME SUMMARY AT END OF TIME STEP    1 IN STRESS PERIOD   20
                    SECONDS     MINUTES      HOURS       DAYS        YEARS
                    -----------------------------------------------------------
   TIME STEP LENGTH  86400.      1440.0      24.000      1.0000     2.73785E-03
 STRESS PERIOD TIME  86400.      1440.0      24.000      1.0000     2.73785E-03
         TOTAL TIME 1.72800E+06  28800.      480.00      20.000     5.47570E-02


end timestep


start timestep kper="21" kstp="1" mode="normal"

 #Stressperiod Save Options

 BEGIN READING OUTPUT CONTROL FOR STRESS PERIOD 21
      ALL TIME STEPS WILL BE SAVED
      ALL TIME STEPS WILL BE SAVED

 END READING OUTPUT CONTROL FOR STRESS PERIOD 21


 PROCESSING STORAGE PERIOD DATA
 END PROCESSING STORAGE PERIOD DATA


 STRESS PERIOD 21 IS TRANSIENT


 REUSING DRNS FROM LAST STRESS PERIOD

 REUSING RIVS FROM LAST STRESS PERIOD

 REUSING RIVS FROM LAST STRESS PERIOD

 REUSING RCHS FROM LAST STRESS PERIOD
 UBDSV06 SAVING              DRN IN MODEL GWF_1            PACKAGE GWF_1           CONNECTED TO MODEL GWF_1            PACKAGE DRN_SYS1         ON UNIT   1018 AT TIME STEP      1, STRESS PERIOD     21
 UBDSV06 SAVING              RIV IN MODEL GWF_1            PACKAGE GWF_1           CONNECTED TO MODEL GWF_1            PACKAGE RIV_SYS1         ON UNIT   1018 AT TIME STEP      1, STRESS PERIOD     21
 UBDSV06 SAVING              RIV IN MODEL GWF_1            PACKAGE GWF_1           CONNECTED TO MODEL GWF_1            PACKAGE RIV_SYS2         ON UNIT   1018 AT TIME STEP      1, STRESS PERIOD     21

 HEAD WILL BE SAVED ON UNIT 1017 AT END OF TIME STEP    1, STRESS PERIOD   21


  VOLUME BUDGET FOR ENTIRE MODEL AT END OF TIME STEP    1, STRESS PERIOD  21
  ---------------------------------------------------------------------------------------------------

     CUMULATIVE VOLUME      L**3       RATES FOR THIS TIME STEP      L**3/T          PACKAGE NAME    
     ------------------                 ------------------------                     ----------------

           IN:                                      IN:
           ---                                      ---
              STO-SS =      167873.5434                STO-SS =        3365.3005     STORAGE                          
                 DRN =           0.0000                   DRN =           0.0000     DRN_SYS1                         
                 RIV =        2431.0193                   RIV =         429.3360     RIV_SYS1                         
                 RIV =           0.0000                   RIV =           0.0000     RIV_SYS2                         
                 RCH =           0.0000                   RCH =           0.0000     RCH_MSW                          

            TOTAL IN =      170304.5627              TOTAL IN =        3794.6366

          OUT:                                     OUT:
          ----                                     ----
              STO-SS =           0.0000                STO-SS =           0.0000     STORAGE                          
                 DRN =        3882.9452                   DRN =         107.5042     DRN_SYS1                         
                 RIV =      155897.2947                   RIV =        3409.9008     RIV_SYS1                         
                 RIV =       10524.3305                   RIV =         277.2316     RIV_SYS2                         
                 RCH =           0.0000                   RCH =           0.0000     RCH_MSW                          

           TOTAL OUT =      170304.5704             TOTAL OUT =        3794.6367

            IN - OUT =      -7.7349E-03              IN - OUT =      -9.2157E-05

 PERCENT DISCREPANCY =          -0.00     PERCENT DISCREPANCY =          -0.00




         TIME SUMMARY AT END OF TIME STEP    1 IN STRESS PERIOD   21
                    SECONDS     MINUTES      HOURS       DAYS        YEARS
                    -----------------------------------------------------------
   TIME STEP LENGTH  86400.      1440.0      24.000      1.0000     2.73785E-03
 STRESS PERIOD TIME  86400.      1440.0      24.000      1.0000     2.73785E-03
         TOTAL TIME 1.81440E+06  30240.      504.00      21.000     5.74949E-02


end timestep


start timestep kper="22" kstp="1" mode="normal"

 #Stressperiod Save Options

 BEGIN READING OUTPUT CONTROL FOR STRESS PERIOD 22
      ALL TIME STEPS WILL BE SAVED
      ALL TIME STEPS WILL BE SAVED

 END READING OUTPUT CONTROL FOR STRESS PERIOD 22


 PROCESSING STORAGE PERIOD DATA
 END PROCESSING STORAGE PERIOD DATA


 STRESS PERIOD 22 IS TRANSIENT


 REUSING DRNS FROM LAST STRESS PERIOD

 REUSING RIVS FROM LAST STRESS PERIOD

 REUSING RIVS FROM LAST STRESS PERIOD

 REUSING RCHS FROM LAST STRESS PERIOD
 UBDSV06 SAVING              DRN IN MODEL GWF_1            PACKAGE GWF_1           CONNECTED TO MODEL GWF_1            PACKAGE DRN_SYS1         ON UNIT   1018 AT TIME STEP      1, STRESS PERIOD     22
 UBDSV06 SAVING              RIV IN MODEL GWF_1            PACKAGE GWF_1           CONNECTED TO MODEL GWF_1            PACKAGE RIV_SYS1         ON UNIT   1018 AT TIME STEP      1, STRESS PERIOD     22
 UBDSV06 SAVING              RIV IN MODEL GWF_1            PACKAGE GWF_1           CONNECTED TO MODEL GWF_1            PACKAGE RIV_SYS2         ON UNIT   1018 AT TIME STEP      1, STRESS PERIOD     22

 HEAD WILL BE SAVED ON UNIT 1017 AT END OF TIME STEP    1, STRESS PERIOD   22


  VOLUME BUDGET FOR ENTIRE MODEL AT END OF TIME STEP    1, STRESS PERIOD  22
  ---------------------------------------------------------------------------------------------------

     CUMULATIVE VOLUME      L**3       RATES FOR THIS TIME STEP      L**3/T          PACKAGE NAME    
     ------------------                 ------------------------                     ----------------

           IN:                                      IN:
           ---                                      ---
              STO-SS =      171052.3076                STO-SS =        3178.7642     STORAGE                          
                 DRN =           0.0000                   DRN =           0.0000     DRN_SYS1                         
                 RIV =        2900.4898                   RIV =         469.4704     RIV_SYS1                         
                 RIV =           0.0000                   RIV =           0.0000     RIV_SYS2                         
                 RCH =           0.0000                   RCH =           0.0000     RCH_MSW                          

            TOTAL IN =      173952.7974              TOTAL IN =        3648.2347

          OUT:                                     OUT:
          ----                                     ----
              STO-SS =           0.0000                STO-SS =           0.0000     STORAGE                          
                 DRN =        3985.4087                   DRN =         102.4635     DRN_SYS1                         
                 RIV =      159179.0616                   RIV =        3281.7669     RIV_SYS1                         
                 RIV =       10788.3349                   RIV =         264.0044     RIV_SYS2                         
                 RCH =           0.0000                   RCH =           0.0000     RCH_MSW                          

           TOTAL OUT =      173952.8052             TOTAL OUT =        3648.2348

            IN - OUT =      -7.8357E-03              IN - OUT =      -1.0076E-04

 PERCENT DISCREPANCY =          -0.00     PERCENT DISCREPANCY =          -0.00




         TIME SUMMARY AT END OF TIME STEP    1 IN STRESS PERIOD   22
                    SECONDS     MINUTES      HOURS       DAYS        YEARS
                    -----------------------------------------------------------
   TIME STEP LENGTH  86400.      1440.0      24.000      1.0000     2.73785E-03
 STRESS PERIOD TIME  86400.      1440.0      24.000      1.0000     2.73785E-03
         TOTAL TIME 1.90080E+06  31680.      528.00      22.000     6.02327E-02


end timestep


start timestep kper="23" kstp="1" mode="normal"

 #Stressperiod Save Options

 BEGIN READING OUTPUT CONTROL FOR STRESS PERIOD 23
      ALL TIME STEPS WILL BE SAVED
      ALL TIME STEPS WILL BE SAVED

 END READING OUTPUT CONTROL FOR STRESS PERIOD 23


 PROCESSING STORAGE PERIOD DATA
 END PROCESSING STORAGE PERIOD DATA


 STRESS PERIOD 23 IS TRANSIENT


 REUSING DRNS FROM LAST STRESS PERIOD

 REUSING RIVS FROM LAST STRESS PERIOD

 REUSING RIVS FROM LAST STRESS PERIOD

 REUSING RCHS FROM LAST STRESS PERIOD
 UBDSV06 SAVING              DRN IN MODEL GWF_1            PACKAGE GWF_1           CONNECTED TO MODEL GWF_1            PACKAGE DRN_SYS1         ON UNIT   1018 AT TIME STEP      1, STRESS PERIOD     23
 UBDSV06 SAVING              RIV IN MODEL GWF_1            PACKAGE GWF_1           CONNECTED TO MODEL GWF_1            PACKAGE RIV_SYS1         ON UNIT   1018 AT TIME STEP      1, STRESS PERIOD     23
 UBDSV06 SAVING              RIV IN MODEL GWF_1            PACKAGE GWF_1           CONNECTED TO MODEL GWF_1            PACKAGE RIV_SYS2         ON UNIT   1018 AT TIME STEP      1, STRESS PERIOD     23

 HEAD WILL BE SAVED ON UNIT 1017 AT END OF TIME STEP    1, STRESS PERIOD   23


  VOLUME BUDGET FOR ENTIRE MODEL AT END OF TIME STEP    1, STRESS PERIOD  23
  ---------------------------------------------------------------------------------------------------

     CUMULATIVE VOLUME      L**3       RATES FOR THIS TIME STEP      L**3/T          PACKAGE NAME    
     ------------------                 ------------------------                     ----------------

           IN:                                      IN:
           ---                                      ---
              STO-SS =      174055.9592                STO-SS =        3003.6516     STORAGE                          
                 DRN =           0.0000                   DRN =           0.0000     DRN_SYS1                         
                 RIV =        3407.3387                   RIV =         506.8489     RIV_SYS1                         
                 RIV =           0.0000                   RIV =           0.0000     RIV_SYS2                         
                 RCH =           0.0000                   RCH =           0.0000     RCH_MSW                          

            TOTAL IN =      177463.2979              TOTAL IN =        3510.5006

          OUT:                                     OUT:
          ----                                     ----
              STO-SS =           0.0000                STO-SS =           0.0000     STORAGE                          
                 DRN =        4083.0926                   DRN =          97.6839     DRN_SYS1                         
                 RIV =      162340.3275                   RIV =        3161.2659     RIV_SYS1                         
                 RIV =       11039.8858                   RIV =         251.5509     RIV_SYS2                         
                 RCH =           0.0000                   RCH =           0.0000     RCH_MSW                          

           TOTAL OUT =      177463.3059             TOTAL OUT =        3510.5007

            IN - OUT =      -7.9429E-03              IN - OUT =      -1.0724E-04

 PERCENT DISCREPANCY =          -0.00     PERCENT DISCREPANCY =          -0.00




         TIME SUMMARY AT END OF TIME STEP    1 IN STRESS PERIOD   23
                    SECONDS     MINUTES      HOURS       DAYS        YEARS
                    -----------------------------------------------------------
   TIME STEP LENGTH  86400.      1440.0      24.000      1.0000     2.73785E-03
 STRESS PERIOD TIME  86400.      1440.0      24.000      1.0000     2.73785E-03
         TOTAL TIME 1.98720E+06  33120.      552.00      23.000     6.29706E-02


end timestep


start timestep kper="24" kstp="1" mode="normal"

 #Stressperiod Save Options

 BEGIN READING OUTPUT CONTROL FOR STRESS PERIOD 24
      ALL TIME STEPS WILL BE SAVED
      ALL TIME STEPS WILL BE SAVED

 END READING OUTPUT CONTROL FOR STRESS PERIOD 24


 PROCESSING STORAGE PERIOD DATA
 END PROCESSING STORAGE PERIOD DATA


 STRESS PERIOD 24 IS TRANSIENT


 REUSING DRNS FROM LAST STRESS PERIOD

 REUSING RIVS FROM LAST STRESS PERIOD

 REUSING RIVS FROM LAST STRESS PERIOD

 REUSING RCHS FROM LAST STRESS PERIOD
 UBDSV06 SAVING              DRN IN MODEL GWF_1            PACKAGE GWF_1           CONNECTED TO MODEL GWF_1            PACKAGE DRN_SYS1         ON UNIT   1018 AT TIME STEP      1, STRESS PERIOD     24
 UBDSV06 SAVING              RIV IN MODEL GWF_1            PACKAGE GWF_1           CONNECTED TO MODEL GWF_1            PACKAGE RIV_SYS1         ON UNIT   1018 AT TIME STEP      1, STRESS PERIOD     24
 UBDSV06 SAVING              RIV IN MODEL GWF_1            PACKAGE GWF_1           CONNECTED TO MODEL GWF_1            PACKAGE RIV_SYS2         ON UNIT   1018 AT TIME STEP      1, STRESS PERIOD     24

 HEAD WILL BE SAVED ON UNIT 1017 AT END OF TIME STEP    1, STRESS PERIOD   24


  VOLUME BUDGET FOR ENTIRE MODEL AT END OF TIME STEP    1, STRESS PERIOD  24
  ---------------------------------------------------------------------------------------------------

     CUMULATIVE VOLUME      L**3       RATES FOR THIS TIME STEP      L**3/T          PACKAGE NAME    
     ------------------                 ------------------------                     ----------------

           IN:                                      IN:
           ---                                      ---
              STO-SS =      176895.0264                STO-SS =        2839.0672     STORAGE                          
                 DRN =           0.0000                   DRN =           0.0000     DRN_SYS1                         
                 RIV =        3949.0504                   RIV =         541.7117     RIV_SYS1                         
                 RIV =           0.0000                   RIV =           0.0000     RIV_SYS2                         
                 RCH =           0.0000                   RCH =           0.0000     RCH_MSW                          

            TOTAL IN =      180844.0768              TOTAL IN =        3380.7789

          OUT:                                     OUT:
          ----                                     ----
              STO-SS =           0.0000                STO-SS =           0.0000     STORAGE                          
                 DRN =        4176.2439                   DRN =          93.1513     DRN_SYS1                         
                 RIV =      165388.1343                   RIV =        3047.8068     RIV_SYS1                         
                 RIV =       11279.7066                   RIV =         239.8208     RIV_SYS2                         
                 RCH =           0.0000                   RCH =           0.0000     RCH_MSW                          

           TOTAL OUT =      180844.0848             TOTAL OUT =        3380.7790

            IN - OUT =      -8.0548E-03              IN - OUT =      -1.1185E-04

 PERCENT DISCREPANCY =          -0.00     PERCENT DISCREPANCY =          -0.00




         TIME SUMMARY AT END OF TIME STEP    1 IN STRESS PERIOD   24
                    SECONDS     MINUTES      HOURS       DAYS        YEARS
                    -----------------------------------------------------------
   TIME STEP LENGTH  86400.      1440.0      24.000      1.0000     2.73785E-03
 STRESS PERIOD TIME  86400.      1440.0      24.000      1.0000     2.73785E-03
         TOTAL TIME 2.07360E+06  34560.      576.00      24.000     6.57084E-02


end timestep


start timestep kper="25" kstp="1" mode="normal"

 #Stressperiod Save Options

 BEGIN READING OUTPUT CONTROL FOR STRESS PERIOD 25
      ALL TIME STEPS WILL BE SAVED
      ALL TIME STEPS WILL BE SAVED

 END READING OUTPUT CONTROL FOR STRESS PERIOD 25


 PROCESSING STORAGE PERIOD DATA
 END PROCESSING STORAGE PERIOD DATA


 STRESS PERIOD 25 IS TRANSIENT


 REUSING DRNS FROM LAST STRESS PERIOD

 REUSING RIVS FROM LAST STRESS PERIOD

 REUSING RIVS FROM LAST STRESS PERIOD

 REUSING RCHS FROM LAST STRESS PERIOD
 UBDSV06 SAVING              DRN IN MODEL GWF_1            PACKAGE GWF_1           CONNECTED TO MODEL GWF_1            PACKAGE DRN_SYS1         ON UNIT   1018 AT TIME STEP      1, STRESS PERIOD     25
 UBDSV06 SAVING              RIV IN MODEL GWF_1            PACKAGE GWF_1           CONNECTED TO MODEL GWF_1            PACKAGE RIV_SYS1         ON UNIT   1018 AT TIME STEP      1, STRESS PERIOD     25
 UBDSV06 SAVING              RIV IN MODEL GWF_1            PACKAGE GWF_1           CONNECTED TO MODEL GWF_1            PACKAGE RIV_SYS2         ON UNIT   1018 AT TIME STEP      1, STRESS PERIOD     25

 HEAD WILL BE SAVED ON UNIT 1017 AT END OF TIME STEP    1, STRESS PERIOD   25


  VOLUME BUDGET FOR ENTIRE MODEL AT END OF TIME STEP    1, STRESS PERIOD  25
  ---------------------------------------------------------------------------------------------------

     CUMULATIVE VOLUME      L**3       RATES FOR THIS TIME STEP      L**3/T          PACKAGE NAME    
     ------------------                 ------------------------                     ----------------

           IN:                                      IN:
           ---                                      ---
              STO-SS =      179579.2488                STO-SS =        2684.2224     STORAGE                          
                 DRN =           0.0000                   DRN =           0.0000     DRN_SYS1                         
                 RIV =        4523.4307                   RIV =         574.3803     RIV_SYS1                         
                 RIV =           0.0000                   RIV =           0.0000     RIV_SYS2                         
                 RCH =           0.0000                   RCH =           0.0000     RCH_MSW                          

            TOTAL IN =      184102.6795              TOTAL IN =        3258.6027

          OUT:                                     OUT:
          ----                                     ----
              STO-SS =           0.0000                STO-SS =           0.0000     STORAGE                          
                 DRN =        4265.0964                   DRN =          88.8524     DRN_SYS1                         
                 RIV =      168329.1169                   RIV =        2940.9826     RIV_SYS1                         
                 RIV =       11508.4745                   RIV =         228.7678     RIV_SYS2                         
                 RCH =           0.0000                   RCH =           0.0000     RCH_MSW                          

           TOTAL OUT =      184102.6877             TOTAL OUT =        3258.6029

            IN - OUT =      -8.1696E-03              IN - OUT =      -1.1484E-04

 PERCENT DISCREPANCY =          -0.00     PERCENT DISCREPANCY =          -0.00




         TIME SUMMARY AT END OF TIME STEP    1 IN STRESS PERIOD   25
                    SECONDS     MINUTES      HOURS       DAYS        YEARS
                    -----------------------------------------------------------
   TIME STEP LENGTH  86400.      1440.0      24.000      1.0000     2.73785E-03
 STRESS PERIOD TIME  86400.      1440.0      24.000      1.0000     2.73785E-03
         TOTAL TIME 2.16000E+06  36000.      600.00      25.000     6.84463E-02


end timestep


start timestep kper="26" kstp="1" mode="normal"

 #Stressperiod Save Options

 BEGIN READING OUTPUT CONTROL FOR STRESS PERIOD 26
      ALL TIME STEPS WILL BE SAVED
      ALL TIME STEPS WILL BE SAVED

 END READING OUTPUT CONTROL FOR STRESS PERIOD 26


 PROCESSING STORAGE PERIOD DATA
 END PROCESSING STORAGE PERIOD DATA


 STRESS PERIOD 26 IS TRANSIENT


 REUSING DRNS FROM LAST STRESS PERIOD

 REUSING RIVS FROM LAST STRESS PERIOD

 REUSING RIVS FROM LAST STRESS PERIOD

 REUSING RCHS FROM LAST STRESS PERIOD
 UBDSV06 SAVING              DRN IN MODEL GWF_1            PACKAGE GWF_1           CONNECTED TO MODEL GWF_1            PACKAGE DRN_SYS1         ON UNIT   1018 AT TIME STEP      1, STRESS PERIOD     26
 UBDSV06 SAVING              RIV IN MODEL GWF_1            PACKAGE GWF_1           CONNECTED TO MODEL GWF_1            PACKAGE RIV_SYS1         ON UNIT   1018 AT TIME STEP      1, STRESS PERIOD     26
 UBDSV06 SAVING              RIV IN MODEL GWF_1            PACKAGE GWF_1           CONNECTED TO MODEL GWF_1            PACKAGE RIV_SYS2         ON UNIT   1018 AT TIME STEP      1, STRESS PERIOD     26

 HEAD WILL BE SAVED ON UNIT 1017 AT END OF TIME STEP    1, STRESS PERIOD   26


  VOLUME BUDGET FOR ENTIRE MODEL AT END OF TIME STEP    1, STRESS PERIOD  26
  ---------------------------------------------------------------------------------------------------

     CUMULATIVE VOLUME      L**3       RATES FOR THIS TIME STEP      L**3/T          PACKAGE NAME    
     ------------------                 ------------------------                     ----------------

           IN:                                      IN:
           ---                                      ---
              STO-SS =      182117.6657                STO-SS =        2538.4169     STORAGE                          
                 DRN =           0.0000                   DRN =           0.0000     DRN_SYS1                         
                 RIV =        5128.8847                   RIV =         605.4540     RIV_SYS1                         
                 RIV =           0.0000                   RIV =           0.0000     RIV_SYS2                         
                 RCH =           0.0000                   RCH =           0.0000     RCH_MSW                          

            TOTAL IN =      187246.5503              TOTAL IN =        3143.8708

          OUT:                                     OUT:
          ----                                     ----
              STO-SS =           0.0000                STO-SS =           0.0000     STORAGE                          
                 DRN =        4349.8713                   DRN =          84.7749     DRN_SYS1                         
                 RIV =      171169.8637                   RIV =        2840.7468     RIV_SYS1                         
                 RIV =       11726.8236                   RIV =         218.3492     RIV_SYS2                         
                 RCH =           0.0000                   RCH =           0.0000     RCH_MSW                          

           TOTAL OUT =      187246.5586             TOTAL OUT =        3143.8709

            IN - OUT =      -8.2861E-03              IN - OUT =      -1.1645E-04

 PERCENT DISCREPANCY =          -0.00     PERCENT DISCREPANCY =          -0.00




         TIME SUMMARY AT END OF TIME STEP    1 IN STRESS PERIOD   26
                    SECONDS     MINUTES      HOURS       DAYS        YEARS
                    -----------------------------------------------------------
   TIME STEP LENGTH  86400.      1440.0      24.000      1.0000     2.73785E-03
 STRESS PERIOD TIME  86400.      1440.0      24.000      1.0000     2.73785E-03
         TOTAL TIME 2.24640E+06  37440.      624.00      26.000     7.11841E-02


end timestep


start timestep kper="27" kstp="1" mode="normal"

 #Stressperiod Save Options

 BEGIN READING OUTPUT CONTROL FOR STRESS PERIOD 27
      ALL TIME STEPS WILL BE SAVED
      ALL TIME STEPS WILL BE SAVED

 END READING OUTPUT CONTROL FOR STRESS PERIOD 27


 PROCESSING STORAGE PERIOD DATA
 END PROCESSING STORAGE PERIOD DATA


 STRESS PERIOD 27 IS TRANSIENT


 REUSING DRNS FROM LAST STRESS PERIOD

 REUSING RIVS FROM LAST STRESS PERIOD

 REUSING RIVS FROM LAST STRESS PERIOD

 REUSING RCHS FROM LAST STRESS PERIOD
 UBDSV06 SAVING              DRN IN MODEL GWF_1            PACKAGE GWF_1           CONNECTED TO MODEL GWF_1            PACKAGE DRN_SYS1         ON UNIT   1018 AT TIME STEP      1, STRESS PERIOD     27
 UBDSV06 SAVING              RIV IN MODEL GWF_1            PACKAGE GWF_1           CONNECTED TO MODEL GWF_1            PACKAGE RIV_SYS1         ON UNIT   1018 AT TIME STEP      1, STRESS PERIOD     27
 UBDSV06 SAVING              RIV IN MODEL GWF_1            PACKAGE GWF_1           CONNECTED TO MODEL GWF_1            PACKAGE RIV_SYS2         ON UNIT   1018 AT TIME STEP      1, STRESS PERIOD     27

 HEAD WILL BE SAVED ON UNIT 1017 AT END OF TIME STEP    1, STRESS PERIOD   27


  VOLUME BUDGET FOR ENTIRE MODEL AT END OF TIME STEP    1, STRESS PERIOD  27
  ---------------------------------------------------------------------------------------------------

     CUMULATIVE VOLUME      L**3       RATES FOR THIS TIME STEP      L**3/T          PACKAGE NAME    
     ------------------                 ------------------------                     ----------------

           IN:                                      IN:
           ---                                      ---
              STO-SS =      184518.6886                STO-SS =        2401.0229     STORAGE                          
                 DRN =           0.0000                   DRN =           0.0000     DRN_SYS1                         
                 RIV =        5764.0921                   RIV =         635.2075     RIV_SYS1                         
                 RIV =           0.0000                   RIV =           0.0000     RIV_SYS2                         
                 RCH =           0.0000                   RCH =           0.0000     RCH_MSW                          

            TOTAL IN =      190282.7807              TOTAL IN =        3036.2304

          OUT:                                     OUT:
          ----                                     ----
              STO-SS =           0.0000                STO-SS =           0.0000     STORAGE                          
                 DRN =        4430.7782                   DRN =          80.9070     DRN_SYS1                         
                 RIV =      173916.6619                   RIV =        2746.7982     RIV_SYS1                         
                 RIV =       11935.3490                   RIV =         208.5254     RIV_SYS2                         
                 RCH =           0.0000                   RCH =           0.0000     RCH_MSW                          

           TOTAL OUT =      190282.7891             TOTAL OUT =        3036.2305

            IN - OUT =      -8.4030E-03              IN - OUT =      -1.1690E-04

 PERCENT DISCREPANCY =          -0.00     PERCENT DISCREPANCY =          -0.00




         TIME SUMMARY AT END OF TIME STEP    1 IN STRESS PERIOD   27
                    SECONDS     MINUTES      HOURS       DAYS        YEARS
                    -----------------------------------------------------------
   TIME STEP LENGTH  86400.      1440.0      24.000      1.0000     2.73785E-03
 STRESS PERIOD TIME  86400.      1440.0      24.000      1.0000     2.73785E-03
         TOTAL TIME 2.33280E+06  38880.      648.00      27.000     7.39220E-02


end timestep


start timestep kper="28" kstp="1" mode="normal"

 #Stressperiod Save Options

 BEGIN READING OUTPUT CONTROL FOR STRESS PERIOD 28
      ALL TIME STEPS WILL BE SAVED
      ALL TIME STEPS WILL BE SAVED

 END READING OUTPUT CONTROL FOR STRESS PERIOD 28


 PROCESSING STORAGE PERIOD DATA
 END PROCESSING STORAGE PERIOD DATA


 STRESS PERIOD 28 IS TRANSIENT


 REUSING DRNS FROM LAST STRESS PERIOD

 REUSING RIVS FROM LAST STRESS PERIOD

 REUSING RIVS FROM LAST STRESS PERIOD

 REUSING RCHS FROM LAST STRESS PERIOD
 UBDSV06 SAVING              DRN IN MODEL GWF_1            PACKAGE GWF_1           CONNECTED TO MODEL GWF_1            PACKAGE DRN_SYS1         ON UNIT   1018 AT TIME STEP      1, STRESS PERIOD     28
 UBDSV06 SAVING              RIV IN MODEL GWF_1            PACKAGE GWF_1           CONNECTED TO MODEL GWF_1            PACKAGE RIV_SYS1         ON UNIT   1018 AT TIME STEP      1, STRESS PERIOD     28
 UBDSV06 SAVING              RIV IN MODEL GWF_1            PACKAGE GWF_1           CONNECTED TO MODEL GWF_1            PACKAGE RIV_SYS2         ON UNIT   1018 AT TIME STEP      1, STRESS PERIOD     28

 HEAD WILL BE SAVED ON UNIT 1017 AT END OF TIME STEP    1, STRESS PERIOD   28


  VOLUME BUDGET FOR ENTIRE MODEL AT END OF TIME STEP    1, STRESS PERIOD  28
  ---------------------------------------------------------------------------------------------------

     CUMULATIVE VOLUME      L**3       RATES FOR THIS TIME STEP      L**3/T          PACKAGE NAME    
     ------------------                 ------------------------                     ----------------

           IN:                                      IN:
           ---                                      ---
              STO-SS =      186790.1632                STO-SS =        2271.4746     STORAGE                          
                 DRN =           0.0000                   DRN =           0.0000     DRN_SYS1                         
                 RIV =        6428.5296                   RIV =         664.4375     RIV_SYS1                         
                 RIV =           0.0000                   RIV =           0.0000     RIV_SYS2                         
                 RCH =           0.0000                   RCH =           0.0000     RCH_MSW                          

            TOTAL IN =      193218.6928              TOTAL IN =        2935.9121

          OUT:                                     OUT:
          ----                                     ----
              STO-SS =           0.0000                STO-SS =           0.0000     STORAGE                          
                 DRN =        4508.0159                   DRN =          77.2376     DRN_SYS1                         
                 RIV =      176576.0767                   RIV =        2659.4148     RIV_SYS1                         
                 RIV =       12134.6087                   RIV =         199.2597     RIV_SYS2                         
                 RCH =           0.0000                   RCH =           0.0000     RCH_MSW                          

           TOTAL OUT =      193218.7013             TOTAL OUT =        2935.9122

            IN - OUT =      -8.5193E-03              IN - OUT =      -1.1637E-04

 PERCENT DISCREPANCY =          -0.00     PERCENT DISCREPANCY =          -0.00




         TIME SUMMARY AT END OF TIME STEP    1 IN STRESS PERIOD   28
                    SECONDS     MINUTES      HOURS       DAYS        YEARS
                    -----------------------------------------------------------
   TIME STEP LENGTH  86400.      1440.0      24.000      1.0000     2.73785E-03
 STRESS PERIOD TIME  86400.      1440.0      24.000      1.0000     2.73785E-03
         TOTAL TIME 2.41920E+06  40320.      672.00      28.000     7.66598E-02


end timestep


start timestep kper="29" kstp="1" mode="normal"

 #Stressperiod Save Options

 BEGIN READING OUTPUT CONTROL FOR STRESS PERIOD 29
      ALL TIME STEPS WILL BE SAVED
      ALL TIME STEPS WILL BE SAVED

 END READING OUTPUT CONTROL FOR STRESS PERIOD 29


 PROCESSING STORAGE PERIOD DATA
 END PROCESSING STORAGE PERIOD DATA


 STRESS PERIOD 29 IS TRANSIENT


 REUSING DRNS FROM LAST STRESS PERIOD

 REUSING RIVS FROM LAST STRESS PERIOD

 REUSING RIVS FROM LAST STRESS PERIOD

 REUSING RCHS FROM LAST STRESS PERIOD
 UBDSV06 SAVING              DRN IN MODEL GWF_1            PACKAGE GWF_1           CONNECTED TO MODEL GWF_1            PACKAGE DRN_SYS1         ON UNIT   1018 AT TIME STEP      1, STRESS PERIOD     29
 UBDSV06 SAVING              RIV IN MODEL GWF_1            PACKAGE GWF_1           CONNECTED TO MODEL GWF_1            PACKAGE RIV_SYS1         ON UNIT   1018 AT TIME STEP      1, STRESS PERIOD     29
 UBDSV06 SAVING              RIV IN MODEL GWF_1            PACKAGE GWF_1           CONNECTED TO MODEL GWF_1            PACKAGE RIV_SYS2         ON UNIT   1018 AT TIME STEP      1, STRESS PERIOD     29

 HEAD WILL BE SAVED ON UNIT 1017 AT END OF TIME STEP    1, STRESS PERIOD   29


  VOLUME BUDGET FOR ENTIRE MODEL AT END OF TIME STEP    1, STRESS PERIOD  29
  ---------------------------------------------------------------------------------------------------

     CUMULATIVE VOLUME      L**3       RATES FOR THIS TIME STEP      L**3/T          PACKAGE NAME    
     ------------------                 ------------------------                     ----------------

           IN:                                      IN:
           ---                                      ---
              STO-SS =      188939.4213                STO-SS =        2149.2581     STORAGE                          
                 DRN =           0.0000                   DRN =           0.0000     DRN_SYS1                         
                 RIV =        7120.3855                   RIV =         691.8559     RIV_SYS1                         
                 RIV =           0.0000                   RIV =           0.0000     RIV_SYS2                         
                 RCH =           0.0000                   RCH =           0.0000     RCH_MSW                          

            TOTAL IN =      196059.8068              TOTAL IN =        2841.1140

          OUT:                                     OUT:
          ----                                     ----
              STO-SS =           0.0000                STO-SS =           0.0000     STORAGE                          
                 DRN =        4581.7724                   DRN =          73.7565     DRN_SYS1                         
                 RIV =      179152.9159                   RIV =        2576.8392     RIV_SYS1                         
                 RIV =       12325.1271                   RIV =         190.5184     RIV_SYS2                         
                 RCH =           0.0000                   RCH =           0.0000     RCH_MSW                          

           TOTAL OUT =      196059.8154             TOTAL OUT =        2841.1141

            IN - OUT =      -8.6344E-03              IN - OUT =      -1.1503E-04

 PERCENT DISCREPANCY =          -0.00     PERCENT DISCREPANCY =          -0.00




         TIME SUMMARY AT END OF TIME STEP    1 IN STRESS PERIOD   29
                    SECONDS     MINUTES      HOURS       DAYS        YEARS
                    -----------------------------------------------------------
   TIME STEP LENGTH  86400.      1440.0      24.000      1.0000     2.73785E-03
 STRESS PERIOD TIME  86400.      1440.0      24.000      1.0000     2.73785E-03
         TOTAL TIME 2.50560E+06  41760.      696.00      29.000     7.93977E-02


end timestep


start timestep kper="30" kstp="1" mode="normal"

 #Stressperiod Save Options

 BEGIN READING OUTPUT CONTROL FOR STRESS PERIOD 30
      ALL TIME STEPS WILL BE SAVED
      ALL TIME STEPS WILL BE SAVED

 END READING OUTPUT CONTROL FOR STRESS PERIOD 30


 PROCESSING STORAGE PERIOD DATA
 END PROCESSING STORAGE PERIOD DATA


 STRESS PERIOD 30 IS TRANSIENT


 REUSING DRNS FROM LAST STRESS PERIOD

 REUSING RIVS FROM LAST STRESS PERIOD

 REUSING RIVS FROM LAST STRESS PERIOD

 REUSING RCHS FROM LAST STRESS PERIOD
 UBDSV06 SAVING              DRN IN MODEL GWF_1            PACKAGE GWF_1           CONNECTED TO MODEL GWF_1            PACKAGE DRN_SYS1         ON UNIT   1018 AT TIME STEP      1, STRESS PERIOD     30
 UBDSV06 SAVING              RIV IN MODEL GWF_1            PACKAGE GWF_1           CONNECTED TO MODEL GWF_1            PACKAGE RIV_SYS1         ON UNIT   1018 AT TIME STEP      1, STRESS PERIOD     30
 UBDSV06 SAVING              RIV IN MODEL GWF_1            PACKAGE GWF_1           CONNECTED TO MODEL GWF_1            PACKAGE RIV_SYS2         ON UNIT   1018 AT TIME STEP      1, STRESS PERIOD     30

 HEAD WILL BE SAVED ON UNIT 1017 AT END OF TIME STEP    1, STRESS PERIOD   30


  VOLUME BUDGET FOR ENTIRE MODEL AT END OF TIME STEP    1, STRESS PERIOD  30
  ---------------------------------------------------------------------------------------------------

     CUMULATIVE VOLUME      L**3       RATES FOR THIS TIME STEP      L**3/T          PACKAGE NAME    
     ------------------                 ------------------------                     ----------------

           IN:                                      IN:
           ---                                      ---
              STO-SS =      190973.3259                STO-SS =        2033.9046     STORAGE                          
                 DRN =           0.0000                   DRN =           0.0000     DRN_SYS1                         
                 RIV =        7837.9826                   RIV =         717.5971     RIV_SYS1                         
                 RIV =           0.0000                   RIV =           0.0000     RIV_SYS2                         
                 RCH =           0.0000                   RCH =           0.0000     RCH_MSW                          

            TOTAL IN =      198811.3085              TOTAL IN =        2751.5017

          OUT:                                     OUT:
          ----                                     ----
              STO-SS =           0.0000                STO-SS =           0.0000     STORAGE                          
                 DRN =        4652.2262                   DRN =          70.4538     DRN_SYS1                         
                 RIV =      181651.6943                   RIV =        2498.7784     RIV_SYS1                         
                 RIV =       12507.3967                   RIV =         182.2696     RIV_SYS2                         
                 RCH =           0.0000                   RCH =           0.0000     RCH_MSW                          

           TOTAL OUT =      198811.3172             TOTAL OUT =        2751.5018

            IN - OUT =      -8.7474E-03              IN - OUT =      -1.1303E-04

 PERCENT DISCREPANCY =          -0.00     PERCENT DISCREPANCY =          -0.00




         TIME SUMMARY AT END OF TIME STEP    1 IN STRESS PERIOD   30
                    SECONDS     MINUTES      HOURS       DAYS        YEARS
                    -----------------------------------------------------------
   TIME STEP LENGTH  86400.      1440.0      24.000      1.0000     2.73785E-03
 STRESS PERIOD TIME  86400.      1440.0      24.000      1.0000     2.73785E-03
         TOTAL TIME 2.59200E+06  43200.      720.00      30.000     8.21355E-02


end timestep


start timestep kper="31" kstp="1" mode="normal"

 #Stressperiod Save Options

 BEGIN READING OUTPUT CONTROL FOR STRESS PERIOD 31
      ALL TIME STEPS WILL BE SAVED
      ALL TIME STEPS WILL BE SAVED

 END READING OUTPUT CONTROL FOR STRESS PERIOD 31


 PROCESSING STORAGE PERIOD DATA
 END PROCESSING STORAGE PERIOD DATA


 STRESS PERIOD 31 IS TRANSIENT


 REUSING DRNS FROM LAST STRESS PERIOD

 REUSING RIVS FROM LAST STRESS PERIOD

 REUSING RIVS FROM LAST STRESS PERIOD

 REUSING RCHS FROM LAST STRESS PERIOD
 UBDSV06 SAVING              DRN IN MODEL GWF_1            PACKAGE GWF_1           CONNECTED TO MODEL GWF_1            PACKAGE DRN_SYS1         ON UNIT   1018 AT TIME STEP      1, STRESS PERIOD     31
 UBDSV06 SAVING              RIV IN MODEL GWF_1            PACKAGE GWF_1           CONNECTED TO MODEL GWF_1            PACKAGE RIV_SYS1         ON UNIT   1018 AT TIME STEP      1, STRESS PERIOD     31
 UBDSV06 SAVING              RIV IN MODEL GWF_1            PACKAGE GWF_1           CONNECTED TO MODEL GWF_1            PACKAGE RIV_SYS2         ON UNIT   1018 AT TIME STEP      1, STRESS PERIOD     31

 HEAD WILL BE SAVED ON UNIT 1017 AT END OF TIME STEP    1, STRESS PERIOD   31


  VOLUME BUDGET FOR ENTIRE MODEL AT END OF TIME STEP    1, STRESS PERIOD  31
  ---------------------------------------------------------------------------------------------------

     CUMULATIVE VOLUME      L**3       RATES FOR THIS TIME STEP      L**3/T          PACKAGE NAME    
     ------------------                 ------------------------                     ----------------

           IN:                                      IN:
           ---                                      ---
              STO-SS =      192898.3103                STO-SS =        1924.9845     STORAGE                          
                 DRN =           0.0000                   DRN =           0.0000     DRN_SYS1                         
                 RIV =        8580.8138                   RIV =         742.8312     RIV_SYS1                         
                 RIV =           0.0000                   RIV =           0.0000     RIV_SYS2                         
                 RCH =           0.0000                   RCH =           0.0000     RCH_MSW                          

            TOTAL IN =      201479.1242              TOTAL IN =        2667.8157

          OUT:                                     OUT:
          ----                                     ----
              STO-SS =           0.0000                STO-SS =           0.0000     STORAGE                          
                 DRN =        4719.5465                   DRN =          67.3203     DRN_SYS1                         
                 RIV =      184077.7057                   RIV =        2426.0114     RIV_SYS1                         
                 RIV =       12681.8808                   RIV =         174.4841     RIV_SYS2                         
                 RCH =           0.0000                   RCH =           0.0000     RCH_MSW                          

           TOTAL OUT =      201479.1330             TOTAL OUT =        2667.8158

            IN - OUT =      -8.8579E-03              IN - OUT =      -1.1051E-04

 PERCENT DISCREPANCY =          -0.00     PERCENT DISCREPANCY =          -0.00




         TIME SUMMARY AT END OF TIME STEP    1 IN STRESS PERIOD   31
                    SECONDS     MINUTES      HOURS       DAYS        YEARS
                    -----------------------------------------------------------
   TIME STEP LENGTH  86400.      1440.0      24.000      1.0000     2.73785E-03
 STRESS PERIOD TIME  86400.      1440.0      24.000      1.0000     2.73785E-03
         TOTAL TIME 2.67840E+06  44640.      744.00      31.000     8.48734E-02


end timestep


start timestep kper="32" kstp="1" mode="normal"

 #Stressperiod Save Options

 BEGIN READING OUTPUT CONTROL FOR STRESS PERIOD 32
      ALL TIME STEPS WILL BE SAVED
      ALL TIME STEPS WILL BE SAVED

 END READING OUTPUT CONTROL FOR STRESS PERIOD 32


 PROCESSING STORAGE PERIOD DATA
 END PROCESSING STORAGE PERIOD DATA


 STRESS PERIOD 32 IS TRANSIENT


 REUSING DRNS FROM LAST STRESS PERIOD

 REUSING RIVS FROM LAST STRESS PERIOD

 REUSING RIVS FROM LAST STRESS PERIOD

 REUSING RCHS FROM LAST STRESS PERIOD
 UBDSV06 SAVING              DRN IN MODEL GWF_1            PACKAGE GWF_1           CONNECTED TO MODEL GWF_1            PACKAGE DRN_SYS1         ON UNIT   1018 AT TIME STEP      1, STRESS PERIOD     32
 UBDSV06 SAVING              RIV IN MODEL GWF_1            PACKAGE GWF_1           CONNECTED TO MODEL GWF_1            PACKAGE RIV_SYS1         ON UNIT   1018 AT TIME STEP      1, STRESS PERIOD     32
 UBDSV06 SAVING              RIV IN MODEL GWF_1            PACKAGE GWF_1           CONNECTED TO MODEL GWF_1            PACKAGE RIV_SYS2         ON UNIT   1018 AT TIME STEP      1, STRESS PERIOD     32

 HEAD WILL BE SAVED ON UNIT 1017 AT END OF TIME STEP    1, STRESS PERIOD   32


  VOLUME BUDGET FOR ENTIRE MODEL AT END OF TIME STEP    1, STRESS PERIOD  32
  ---------------------------------------------------------------------------------------------------

     CUMULATIVE VOLUME      L**3       RATES FOR THIS TIME STEP      L**3/T          PACKAGE NAME    
     ------------------                 ------------------------                     ----------------

           IN:                                      IN:
           ---                                      ---
              STO-SS =      194720.4124                STO-SS =        1822.1021     STORAGE                          
                 DRN =           0.0000                   DRN =           0.0000     DRN_SYS1                         
                 RIV =        9348.2432                   RIV =         767.4293     RIV_SYS1                         
                 RIV =           0.0000                   RIV =           0.0000     RIV_SYS2                         
                 RCH =           0.0000                   RCH =           0.0000     RCH_MSW                          

            TOTAL IN =      204068.6556              TOTAL IN =        2589.5314

          OUT:                                     OUT:
          ----                                     ----
              STO-SS =           0.0000                STO-SS =           0.0000     STORAGE                          
                 DRN =        4783.8937                   DRN =          64.3472     DRN_SYS1                         
                 RIV =      186435.7559                   RIV =        2358.0501     RIV_SYS1                         
                 RIV =       12849.0151                   RIV =         167.1343     RIV_SYS2                         
                 RCH =           0.0000                   RCH =           0.0000     RCH_MSW                          

           TOTAL OUT =      204068.6646             TOTAL OUT =        2589.5315

            IN - OUT =      -8.9655E-03              IN - OUT =      -1.0757E-04

 PERCENT DISCREPANCY =          -0.00     PERCENT DISCREPANCY =          -0.00




         TIME SUMMARY AT END OF TIME STEP    1 IN STRESS PERIOD   32
                    SECONDS     MINUTES      HOURS       DAYS        YEARS
                    -----------------------------------------------------------
   TIME STEP LENGTH  86400.      1440.0      24.000      1.0000     2.73785E-03
 STRESS PERIOD TIME  86400.      1440.0      24.000      1.0000     2.73785E-03
         TOTAL TIME 2.76480E+06  46080.      768.00      32.000     8.76112E-02


end timestep


start timestep kper="33" kstp="1" mode="normal"

 #Stressperiod Save Options

 BEGIN READING OUTPUT CONTROL FOR STRESS PERIOD 33
      ALL TIME STEPS WILL BE SAVED
      ALL TIME STEPS WILL BE SAVED

 END READING OUTPUT CONTROL FOR STRESS PERIOD 33


 PROCESSING STORAGE PERIOD DATA
 END PROCESSING STORAGE PERIOD DATA


 STRESS PERIOD 33 IS TRANSIENT


 REUSING DRNS FROM LAST STRESS PERIOD

 REUSING RIVS FROM LAST STRESS PERIOD

 REUSING RIVS FROM LAST STRESS PERIOD

 REUSING RCHS FROM LAST STRESS PERIOD
 UBDSV06 SAVING              DRN IN MODEL GWF_1            PACKAGE GWF_1           CONNECTED TO MODEL GWF_1            PACKAGE DRN_SYS1         ON UNIT   1018 AT TIME STEP      1, STRESS PERIOD     33
 UBDSV06 SAVING              RIV IN MODEL GWF_1            PACKAGE GWF_1           CONNECTED TO MODEL GWF_1            PACKAGE RIV_SYS1         ON UNIT   1018 AT TIME STEP      1, STRESS PERIOD     33
 UBDSV06 SAVING              RIV IN MODEL GWF_1            PACKAGE GWF_1           CONNECTED TO MODEL GWF_1            PACKAGE RIV_SYS2         ON UNIT   1018 AT TIME STEP      1, STRESS PERIOD     33

 HEAD WILL BE SAVED ON UNIT 1017 AT END OF TIME STEP    1, STRESS PERIOD   33


  VOLUME BUDGET FOR ENTIRE MODEL AT END OF TIME STEP    1, STRESS PERIOD  33
  ---------------------------------------------------------------------------------------------------

     CUMULATIVE VOLUME      L**3       RATES FOR THIS TIME STEP      L**3/T          PACKAGE NAME    
     ------------------                 ------------------------                     ----------------

           IN:                                      IN:
           ---                                      ---
              STO-SS =      196445.3048                STO-SS =        1724.8923     STORAGE                          
                 DRN =           0.0000                   DRN =           0.0000     DRN_SYS1                         
                 RIV =       10138.8212                   RIV =         790.5780     RIV_SYS1                         
                 RIV =           0.0000                   RIV =           0.0000     RIV_SYS2                         
                 RCH =           0.0000                   RCH =           0.0000     RCH_MSW                          

            TOTAL IN =      206584.1259              TOTAL IN =        2515.4703

          OUT:                                     OUT:
          ----                                     ----
              STO-SS =           0.0000                STO-SS =           0.0000     STORAGE                          
                 DRN =        4845.4198                   DRN =          61.5262     DRN_SYS1                         
                 RIV =      188729.5056                   RIV =        2293.7497     RIV_SYS1                         
                 RIV =       13009.2096                   RIV =         160.1945     RIV_SYS2                         
                 RCH =           0.0000                   RCH =           0.0000     RCH_MSW                          

           TOTAL OUT =      206584.1350             TOTAL OUT =        2515.4704

            IN - OUT =      -9.0698E-03              IN - OUT =      -1.0431E-04

 PERCENT DISCREPANCY =          -0.00     PERCENT DISCREPANCY =          -0.00




         TIME SUMMARY AT END OF TIME STEP    1 IN STRESS PERIOD   33
                    SECONDS     MINUTES      HOURS       DAYS        YEARS
                    -----------------------------------------------------------
   TIME STEP LENGTH  86400.      1440.0      24.000      1.0000     2.73785E-03
 STRESS PERIOD TIME  86400.      1440.0      24.000      1.0000     2.73785E-03
         TOTAL TIME 2.85120E+06  47520.      792.00      33.000     9.03491E-02


end timestep


start timestep kper="34" kstp="1" mode="normal"

 #Stressperiod Save Options

 BEGIN READING OUTPUT CONTROL FOR STRESS PERIOD 34
      ALL TIME STEPS WILL BE SAVED
      ALL TIME STEPS WILL BE SAVED

 END READING OUTPUT CONTROL FOR STRESS PERIOD 34


 PROCESSING STORAGE PERIOD DATA
 END PROCESSING STORAGE PERIOD DATA


 STRESS PERIOD 34 IS TRANSIENT


 REUSING DRNS FROM LAST STRESS PERIOD

 REUSING RIVS FROM LAST STRESS PERIOD

 REUSING RIVS FROM LAST STRESS PERIOD

 REUSING RCHS FROM LAST STRESS PERIOD
 UBDSV06 SAVING              DRN IN MODEL GWF_1            PACKAGE GWF_1           CONNECTED TO MODEL GWF_1            PACKAGE DRN_SYS1         ON UNIT   1018 AT TIME STEP      1, STRESS PERIOD     34
 UBDSV06 SAVING              RIV IN MODEL GWF_1            PACKAGE GWF_1           CONNECTED TO MODEL GWF_1            PACKAGE RIV_SYS1         ON UNIT   1018 AT TIME STEP      1, STRESS PERIOD     34
 UBDSV06 SAVING              RIV IN MODEL GWF_1            PACKAGE GWF_1           CONNECTED TO MODEL GWF_1            PACKAGE RIV_SYS2         ON UNIT   1018 AT TIME STEP      1, STRESS PERIOD     34

 HEAD WILL BE SAVED ON UNIT 1017 AT END OF TIME STEP    1, STRESS PERIOD   34


  VOLUME BUDGET FOR ENTIRE MODEL AT END OF TIME STEP    1, STRESS PERIOD  34
  ---------------------------------------------------------------------------------------------------

     CUMULATIVE VOLUME      L**3       RATES FOR THIS TIME STEP      L**3/T          PACKAGE NAME    
     ------------------                 ------------------------                     ----------------

           IN:                                      IN:
           ---                                      ---
              STO-SS =      198078.3216                STO-SS =        1633.0168     STORAGE                          
                 DRN =           0.0000                   DRN =           0.0000     DRN_SYS1                         
                 RIV =       10951.1968                   RIV =         812.3756     RIV_SYS1                         
                 RIV =           0.0000                   RIV =           0.0000     RIV_SYS2                         
                 RCH =           0.0000                   RCH =           0.0000     RCH_MSW                          

            TOTAL IN =      209029.5184              TOTAL IN =        2445.3924

          OUT:                                     OUT:
          ----                                     ----
              STO-SS =           0.0000                STO-SS =           0.0000     STORAGE                          
                 DRN =        4904.2693                   DRN =          58.8495     DRN_SYS1                         
                 RIV =      190962.4077                   RIV =        2232.9021     RIV_SYS1                         
                 RIV =       13162.8506                   RIV =         153.6410     RIV_SYS2                         
                 RCH =           0.0000                   RCH =           0.0000     RCH_MSW                          

           TOTAL OUT =      209029.5275             TOTAL OUT =        2445.3925

            IN - OUT =      -9.1706E-03              IN - OUT =      -1.0082E-04

 PERCENT DISCREPANCY =          -0.00     PERCENT DISCREPANCY =          -0.00




         TIME SUMMARY AT END OF TIME STEP    1 IN STRESS PERIOD   34
                    SECONDS     MINUTES      HOURS       DAYS        YEARS
                    -----------------------------------------------------------
   TIME STEP LENGTH  86400.      1440.0      24.000      1.0000     2.73785E-03
 STRESS PERIOD TIME  86400.      1440.0      24.000      1.0000     2.73785E-03
         TOTAL TIME 2.93760E+06  48960.      816.00      34.000     9.30869E-02


end timestep


start timestep kper="35" kstp="1" mode="normal"

 #Stressperiod Save Options

 BEGIN READING OUTPUT CONTROL FOR STRESS PERIOD 35
      ALL TIME STEPS WILL BE SAVED
      ALL TIME STEPS WILL BE SAVED

 END READING OUTPUT CONTROL FOR STRESS PERIOD 35


 PROCESSING STORAGE PERIOD DATA
 END PROCESSING STORAGE PERIOD DATA


 STRESS PERIOD 35 IS TRANSIENT


 REUSING DRNS FROM LAST STRESS PERIOD

 REUSING RIVS FROM LAST STRESS PERIOD

 REUSING RIVS FROM LAST STRESS PERIOD

 REUSING RCHS FROM LAST STRESS PERIOD
 UBDSV06 SAVING              DRN IN MODEL GWF_1            PACKAGE GWF_1           CONNECTED TO MODEL GWF_1            PACKAGE DRN_SYS1         ON UNIT   1018 AT TIME STEP      1, STRESS PERIOD     35
 UBDSV06 SAVING              RIV IN MODEL GWF_1            PACKAGE GWF_1           CONNECTED TO MODEL GWF_1            PACKAGE RIV_SYS1         ON UNIT   1018 AT TIME STEP      1, STRESS PERIOD     35
 UBDSV06 SAVING              RIV IN MODEL GWF_1            PACKAGE GWF_1           CONNECTED TO MODEL GWF_1            PACKAGE RIV_SYS2         ON UNIT   1018 AT TIME STEP      1, STRESS PERIOD     35

 HEAD WILL BE SAVED ON UNIT 1017 AT END OF TIME STEP    1, STRESS PERIOD   35


  VOLUME BUDGET FOR ENTIRE MODEL AT END OF TIME STEP    1, STRESS PERIOD  35
  ---------------------------------------------------------------------------------------------------

     CUMULATIVE VOLUME      L**3       RATES FOR THIS TIME STEP      L**3/T          PACKAGE NAME    
     ------------------                 ------------------------                     ----------------

           IN:                                      IN:
           ---                                      ---
              STO-SS =      199624.4781                STO-SS =        1546.1565     STORAGE                          
                 DRN =           0.0000                   DRN =           0.0000     DRN_SYS1                         
                 RIV =       11784.1086                   RIV =         832.9118     RIV_SYS1                         
                 RIV =           0.0000                   RIV =           0.0000     RIV_SYS2                         
                 RCH =           0.0000                   RCH =           0.0000     RCH_MSW                          

            TOTAL IN =      211408.5866              TOTAL IN =        2379.0683

          OUT:                                     OUT:
          ----                                     ----
              STO-SS =           0.0000                STO-SS =           0.0000     STORAGE                          
                 DRN =        4960.5791                   DRN =          56.3098     DRN_SYS1                         
                 RIV =      193137.7221                   RIV =        2175.3144     RIV_SYS1                         
                 RIV =       13310.3016                   RIV =         147.4511     RIV_SYS2                         
                 RCH =           0.0000                   RCH =           0.0000     RCH_MSW                          

           TOTAL OUT =      211408.6028             TOTAL OUT =        2379.0753

            IN - OUT =      -1.6163E-02              IN - OUT =      -6.9928E-03

 PERCENT DISCREPANCY =          -0.00     PERCENT DISCREPANCY =          -0.00




         TIME SUMMARY AT END OF TIME STEP    1 IN STRESS PERIOD   35
                    SECONDS     MINUTES      HOURS       DAYS        YEARS
                    -----------------------------------------------------------
   TIME STEP LENGTH  86400.      1440.0      24.000      1.0000     2.73785E-03
 STRESS PERIOD TIME  86400.      1440.0      24.000      1.0000     2.73785E-03
         TOTAL TIME 3.02400E+06  50400.      840.00      35.000     9.58248E-02


end timestep


start timestep kper="36" kstp="1" mode="normal"

 #Stressperiod Save Options

 BEGIN READING OUTPUT CONTROL FOR STRESS PERIOD 36
      ALL TIME STEPS WILL BE SAVED
      ALL TIME STEPS WILL BE SAVED

 END READING OUTPUT CONTROL FOR STRESS PERIOD 36


 PROCESSING STORAGE PERIOD DATA
 END PROCESSING STORAGE PERIOD DATA


 STRESS PERIOD 36 IS TRANSIENT


 REUSING DRNS FROM LAST STRESS PERIOD

 REUSING RIVS FROM LAST STRESS PERIOD

 REUSING RIVS FROM LAST STRESS PERIOD

 REUSING RCHS FROM LAST STRESS PERIOD
 UBDSV06 SAVING              DRN IN MODEL GWF_1            PACKAGE GWF_1           CONNECTED TO MODEL GWF_1            PACKAGE DRN_SYS1         ON UNIT   1018 AT TIME STEP      1, STRESS PERIOD     36
 UBDSV06 SAVING              RIV IN MODEL GWF_1            PACKAGE GWF_1           CONNECTED TO MODEL GWF_1            PACKAGE RIV_SYS1         ON UNIT   1018 AT TIME STEP      1, STRESS PERIOD     36
 UBDSV06 SAVING              RIV IN MODEL GWF_1            PACKAGE GWF_1           CONNECTED TO MODEL GWF_1            PACKAGE RIV_SYS2         ON UNIT   1018 AT TIME STEP      1, STRESS PERIOD     36

 HEAD WILL BE SAVED ON UNIT 1017 AT END OF TIME STEP    1, STRESS PERIOD   36


  VOLUME BUDGET FOR ENTIRE MODEL AT END OF TIME STEP    1, STRESS PERIOD  36
  ---------------------------------------------------------------------------------------------------

     CUMULATIVE VOLUME      L**3       RATES FOR THIS TIME STEP      L**3/T          PACKAGE NAME    
     ------------------                 ------------------------                     ----------------

           IN:                                      IN:
           ---                                      ---
              STO-SS =      201088.5083                STO-SS =        1464.0302     STORAGE                          
                 DRN =           0.0000                   DRN =           0.0000     DRN_SYS1                         
                 RIV =       12638.5196                   RIV =         854.4111     RIV_SYS1                         
                 RIV =           0.0000                   RIV =           0.0000     RIV_SYS2                         
                 RCH =           0.0000                   RCH =           0.0000     RCH_MSW                          

            TOTAL IN =      213727.0280              TOTAL IN =        2318.4413

          OUT:                                     OUT:
          ----                                     ----
              STO-SS =           0.0000                STO-SS =           0.0000     STORAGE                          
                 DRN =        5014.4789                   DRN =          53.8999     DRN_SYS1                         
                 RIV =      195260.6664                   RIV =        2122.9443     RIV_SYS1                         
                 RIV =       13451.9055                   RIV =         141.6038     RIV_SYS2                         
                 RCH =           0.0000                   RCH =           0.0000     RCH_MSW                          

           TOTAL OUT =      213727.0508             TOTAL OUT =        2318.4480

            IN - OUT =      -2.2826E-02              IN - OUT =      -6.6628E-03

 PERCENT DISCREPANCY =          -0.00     PERCENT DISCREPANCY =          -0.00




         TIME SUMMARY AT END OF TIME STEP    1 IN STRESS PERIOD   36
                    SECONDS     MINUTES      HOURS       DAYS        YEARS
                    -----------------------------------------------------------
   TIME STEP LENGTH  86400.      1440.0      24.000      1.0000     2.73785E-03
 STRESS PERIOD TIME  86400.      1440.0      24.000      1.0000     2.73785E-03
         TOTAL TIME 3.11040E+06  51840.      864.00      36.000     9.85626E-02


end timestep


start timestep kper="37" kstp="1" mode="normal"

 #Stressperiod Save Options

 BEGIN READING OUTPUT CONTROL FOR STRESS PERIOD 37
      ALL TIME STEPS WILL BE SAVED
      ALL TIME STEPS WILL BE SAVED

 END READING OUTPUT CONTROL FOR STRESS PERIOD 37


 PROCESSING STORAGE PERIOD DATA
 END PROCESSING STORAGE PERIOD DATA


 STRESS PERIOD 37 IS TRANSIENT


 REUSING DRNS FROM LAST STRESS PERIOD

 REUSING RIVS FROM LAST STRESS PERIOD

 REUSING RIVS FROM LAST STRESS PERIOD

 REUSING RCHS FROM LAST STRESS PERIOD
 UBDSV06 SAVING              DRN IN MODEL GWF_1            PACKAGE GWF_1           CONNECTED TO MODEL GWF_1            PACKAGE DRN_SYS1         ON UNIT   1018 AT TIME STEP      1, STRESS PERIOD     37
 UBDSV06 SAVING              RIV IN MODEL GWF_1            PACKAGE GWF_1           CONNECTED TO MODEL GWF_1            PACKAGE RIV_SYS1         ON UNIT   1018 AT TIME STEP      1, STRESS PERIOD     37
 UBDSV06 SAVING              RIV IN MODEL GWF_1            PACKAGE GWF_1           CONNECTED TO MODEL GWF_1            PACKAGE RIV_SYS2         ON UNIT   1018 AT TIME STEP      1, STRESS PERIOD     37

 HEAD WILL BE SAVED ON UNIT 1017 AT END OF TIME STEP    1, STRESS PERIOD   37


  VOLUME BUDGET FOR ENTIRE MODEL AT END OF TIME STEP    1, STRESS PERIOD  37
  ---------------------------------------------------------------------------------------------------

     CUMULATIVE VOLUME      L**3       RATES FOR THIS TIME STEP      L**3/T          PACKAGE NAME    
     ------------------                 ------------------------                     ----------------

           IN:                                      IN:
           ---                                      ---
              STO-SS =      202474.8671                STO-SS =        1386.3588     STORAGE                          
                 DRN =           0.0000                   DRN =           0.0000     DRN_SYS1                         
                 RIV =       13513.3423                   RIV =         874.8226     RIV_SYS1                         
                 RIV =           0.0000                   RIV =           0.0000     RIV_SYS2                         
                 RCH =           0.0000                   RCH =           0.0000     RCH_MSW                          

            TOTAL IN =      215988.2094              TOTAL IN =        2261.1814

          OUT:                                     OUT:
          ----                                     ----
              STO-SS =           0.0000                STO-SS =           0.0000     STORAGE                          
                 DRN =        5066.0921                   DRN =          51.6132     DRN_SYS1                         
                 RIV =      197334.1614                   RIV =        2073.4950     RIV_SYS1                         
                 RIV =       13587.9850                   RIV =         136.0796     RIV_SYS2                         
                 RCH =           0.0000                   RCH =           0.0000     RCH_MSW                          

           TOTAL OUT =      215988.2385             TOTAL OUT =        2261.1878

            IN - OUT =      -2.9170E-02              IN - OUT =      -6.3437E-03

 PERCENT DISCREPANCY =          -0.00     PERCENT DISCREPANCY =          -0.00




         TIME SUMMARY AT END OF TIME STEP    1 IN STRESS PERIOD   37
                    SECONDS     MINUTES      HOURS       DAYS        YEARS
                    -----------------------------------------------------------
   TIME STEP LENGTH  86400.      1440.0      24.000      1.0000     2.73785E-03
 STRESS PERIOD TIME  86400.      1440.0      24.000      1.0000     2.73785E-03
         TOTAL TIME 3.19680E+06  53280.      888.00      37.000     0.10130    


end timestep


start timestep kper="38" kstp="1" mode="normal"

 #Stressperiod Save Options

 BEGIN READING OUTPUT CONTROL FOR STRESS PERIOD 38
      ALL TIME STEPS WILL BE SAVED
      ALL TIME STEPS WILL BE SAVED

 END READING OUTPUT CONTROL FOR STRESS PERIOD 38


 PROCESSING STORAGE PERIOD DATA
 END PROCESSING STORAGE PERIOD DATA


 STRESS PERIOD 38 IS TRANSIENT


 REUSING DRNS FROM LAST STRESS PERIOD

 REUSING RIVS FROM LAST STRESS PERIOD

 REUSING RIVS FROM LAST STRESS PERIOD

 REUSING RCHS FROM LAST STRESS PERIOD
 UBDSV06 SAVING              DRN IN MODEL GWF_1            PACKAGE GWF_1           CONNECTED TO MODEL GWF_1            PACKAGE DRN_SYS1         ON UNIT   1018 AT TIME STEP      1, STRESS PERIOD     38
 UBDSV06 SAVING              RIV IN MODEL GWF_1            PACKAGE GWF_1           CONNECTED TO MODEL GWF_1            PACKAGE RIV_SYS1         ON UNIT   1018 AT TIME STEP      1, STRESS PERIOD     38
 UBDSV06 SAVING              RIV IN MODEL GWF_1            PACKAGE GWF_1           CONNECTED TO MODEL GWF_1            PACKAGE RIV_SYS2         ON UNIT   1018 AT TIME STEP      1, STRESS PERIOD     38

 HEAD WILL BE SAVED ON UNIT 1017 AT END OF TIME STEP    1, STRESS PERIOD   38


  VOLUME BUDGET FOR ENTIRE MODEL AT END OF TIME STEP    1, STRESS PERIOD  38
  ---------------------------------------------------------------------------------------------------

     CUMULATIVE VOLUME      L**3       RATES FOR THIS TIME STEP      L**3/T          PACKAGE NAME    
     ------------------                 ------------------------                     ----------------

           IN:                                      IN:
           ---                                      ---
              STO-SS =      203787.7547                STO-SS =        1312.8876     STORAGE                          
                 DRN =           0.0000                   DRN =           0.0000     DRN_SYS1                         
                 RIV =       14407.4232                   RIV =         894.0809     RIV_SYS1                         
                 RIV =           0.0000                   RIV =           0.0000     RIV_SYS2                         
                 RCH =           0.0000                   RCH =           0.0000     RCH_MSW                          

            TOTAL IN =      218195.1779              TOTAL IN =        2206.9685

          OUT:                                     OUT:
          ----                                     ----
              STO-SS =           0.0000                STO-SS =           0.0000     STORAGE                          
                 DRN =        5115.5355                   DRN =          49.4434     DRN_SYS1                         
                 RIV =      199360.8327                   RIV =        2026.6713     RIV_SYS1                         
                 RIV =       13718.8449                   RIV =         130.8599     RIV_SYS2                         
                 RCH =           0.0000                   RCH =           0.0000     RCH_MSW                          

           TOTAL OUT =      218195.2131             TOTAL OUT =        2206.9746

            IN - OUT =      -3.5206E-02              IN - OUT =      -6.0358E-03

 PERCENT DISCREPANCY =          -0.00     PERCENT DISCREPANCY =          -0.00




         TIME SUMMARY AT END OF TIME STEP    1 IN STRESS PERIOD   38
                    SECONDS     MINUTES      HOURS       DAYS        YEARS
                    -----------------------------------------------------------
   TIME STEP LENGTH  86400.      1440.0      24.000      1.0000     2.73785E-03
 STRESS PERIOD TIME  86400.      1440.0      24.000      1.0000     2.73785E-03
         TOTAL TIME 3.28320E+06  54720.      912.00      38.000     0.10404    


end timestep


start timestep kper="39" kstp="1" mode="normal"

 #Stressperiod Save Options

 BEGIN READING OUTPUT CONTROL FOR STRESS PERIOD 39
      ALL TIME STEPS WILL BE SAVED
      ALL TIME STEPS WILL BE SAVED

 END READING OUTPUT CONTROL FOR STRESS PERIOD 39


 PROCESSING STORAGE PERIOD DATA
 END PROCESSING STORAGE PERIOD DATA


 STRESS PERIOD 39 IS TRANSIENT


 REUSING DRNS FROM LAST STRESS PERIOD

 REUSING RIVS FROM LAST STRESS PERIOD

 REUSING RIVS FROM LAST STRESS PERIOD

 REUSING RCHS FROM LAST STRESS PERIOD
 UBDSV06 SAVING              DRN IN MODEL GWF_1            PACKAGE GWF_1           CONNECTED TO MODEL GWF_1            PACKAGE DRN_SYS1         ON UNIT   1018 AT TIME STEP      1, STRESS PERIOD     39
 UBDSV06 SAVING              RIV IN MODEL GWF_1            PACKAGE GWF_1           CONNECTED TO MODEL GWF_1            PACKAGE RIV_SYS1         ON UNIT   1018 AT TIME STEP      1, STRESS PERIOD     39
 UBDSV06 SAVING              RIV IN MODEL GWF_1            PACKAGE GWF_1           CONNECTED TO MODEL GWF_1            PACKAGE RIV_SYS2         ON UNIT   1018 AT TIME STEP      1, STRESS PERIOD     39

 HEAD WILL BE SAVED ON UNIT 1017 AT END OF TIME STEP    1, STRESS PERIOD   39


  VOLUME BUDGET FOR ENTIRE MODEL AT END OF TIME STEP    1, STRESS PERIOD  39
  ---------------------------------------------------------------------------------------------------

     CUMULATIVE VOLUME      L**3       RATES FOR THIS TIME STEP      L**3/T          PACKAGE NAME    
     ------------------                 ------------------------                     ----------------

           IN:                                      IN:
           ---                                      ---
              STO-SS =      205031.1333                STO-SS =        1243.3786     STORAGE                          
                 DRN =           0.0000                   DRN =           0.0000     DRN_SYS1                         
                 RIV =       15319.6812                   RIV =         912.2580     RIV_SYS1                         
                 RIV =           0.0000                   RIV =           0.0000     RIV_SYS2                         
                 RCH =           0.0000                   RCH =           0.0000     RCH_MSW                          

            TOTAL IN =      220350.8145              TOTAL IN =        2155.6366

          OUT:                                     OUT:
          ----                                     ----
              STO-SS =           0.0000                STO-SS =           0.0000     STORAGE                          
                 DRN =        5162.9200                   DRN =          47.3845     DRN_SYS1                         
                 RIV =      201343.1632                   RIV =        1982.3305     RIV_SYS1                         
                 RIV =       13844.7723                   RIV =         125.9274     RIV_SYS2                         
                 RCH =           0.0000                   RCH =           0.0000     RCH_MSW                          

           TOTAL OUT =      220350.8554             TOTAL OUT =        2155.6424

            IN - OUT =      -4.0945E-02              IN - OUT =      -5.7395E-03

 PERCENT DISCREPANCY =          -0.00     PERCENT DISCREPANCY =          -0.00




         TIME SUMMARY AT END OF TIME STEP    1 IN STRESS PERIOD   39
                    SECONDS     MINUTES      HOURS       DAYS        YEARS
                    -----------------------------------------------------------
   TIME STEP LENGTH  86400.      1440.0      24.000      1.0000     2.73785E-03
 STRESS PERIOD TIME  86400.      1440.0      24.000      1.0000     2.73785E-03
         TOTAL TIME 3.36960E+06  56160.      936.00      39.000     0.10678    


end timestep


start timestep kper="40" kstp="1" mode="normal"

 #Stressperiod Save Options

 BEGIN READING OUTPUT CONTROL FOR STRESS PERIOD 40
      ALL TIME STEPS WILL BE SAVED
      ALL TIME STEPS WILL BE SAVED

 END READING OUTPUT CONTROL FOR STRESS PERIOD 40


 PROCESSING STORAGE PERIOD DATA
 END PROCESSING STORAGE PERIOD DATA


 STRESS PERIOD 40 IS TRANSIENT


 REUSING DRNS FROM LAST STRESS PERIOD

 REUSING RIVS FROM LAST STRESS PERIOD

 REUSING RIVS FROM LAST STRESS PERIOD

 REUSING RCHS FROM LAST STRESS PERIOD
 UBDSV06 SAVING              DRN IN MODEL GWF_1            PACKAGE GWF_1           CONNECTED TO MODEL GWF_1            PACKAGE DRN_SYS1         ON UNIT   1018 AT TIME STEP      1, STRESS PERIOD     40
 UBDSV06 SAVING              RIV IN MODEL GWF_1            PACKAGE GWF_1           CONNECTED TO MODEL GWF_1            PACKAGE RIV_SYS1         ON UNIT   1018 AT TIME STEP      1, STRESS PERIOD     40
 UBDSV06 SAVING              RIV IN MODEL GWF_1            PACKAGE GWF_1           CONNECTED TO MODEL GWF_1            PACKAGE RIV_SYS2         ON UNIT   1018 AT TIME STEP      1, STRESS PERIOD     40

 HEAD WILL BE SAVED ON UNIT 1017 AT END OF TIME STEP    1, STRESS PERIOD   40


  VOLUME BUDGET FOR ENTIRE MODEL AT END OF TIME STEP    1, STRESS PERIOD  40
  ---------------------------------------------------------------------------------------------------

     CUMULATIVE VOLUME      L**3       RATES FOR THIS TIME STEP      L**3/T          PACKAGE NAME    
     ------------------                 ------------------------                     ----------------

           IN:                                      IN:
           ---                                      ---
              STO-SS =      206208.7422                STO-SS =        1177.6089     STORAGE                          
                 DRN =           0.0000                   DRN =           0.0000     DRN_SYS1                         
                 RIV =       16249.1017                   RIV =         929.4205     RIV_SYS1                         
                 RIV =           0.0000                   RIV =           0.0000     RIV_SYS2                         
                 RCH =           0.0000                   RCH =           0.0000     RCH_MSW                          

            TOTAL IN =      222457.8439              TOTAL IN =        2107.0294

          OUT:                                     OUT:
          ----                                     ----
              STO-SS =           0.0000                STO-SS =           0.0000     STORAGE                          
                 DRN =        5208.3509                   DRN =          45.4309     DRN_SYS1                         
                 RIV =      203283.5014                   RIV =        1940.3382     RIV_SYS1                         
                 RIV =       13966.0380                   RIV =         121.2657     RIV_SYS2                         
                 RCH =           0.0000                   RCH =           0.0000     RCH_MSW                          

           TOTAL OUT =      222457.8903             TOTAL OUT =        2107.0348

            IN - OUT =      -4.6400E-02              IN - OUT =      -5.4547E-03

 PERCENT DISCREPANCY =          -0.00     PERCENT DISCREPANCY =          -0.00




         TIME SUMMARY AT END OF TIME STEP    1 IN STRESS PERIOD   40
                    SECONDS     MINUTES      HOURS       DAYS        YEARS
                    -----------------------------------------------------------
   TIME STEP LENGTH  86400.      1440.0      24.000      1.0000     2.73785E-03
 STRESS PERIOD TIME  86400.      1440.0      24.000      1.0000     2.73785E-03
         TOTAL TIME 3.45600E+06  57600.      960.00      40.000     0.10951    


end timestep


start timestep kper="41" kstp="1" mode="normal"

 #Stressperiod Save Options

 BEGIN READING OUTPUT CONTROL FOR STRESS PERIOD 41
      ALL TIME STEPS WILL BE SAVED
      ALL TIME STEPS WILL BE SAVED

 END READING OUTPUT CONTROL FOR STRESS PERIOD 41


 PROCESSING STORAGE PERIOD DATA
 END PROCESSING STORAGE PERIOD DATA


 STRESS PERIOD 41 IS TRANSIENT


 REUSING DRNS FROM LAST STRESS PERIOD

 REUSING RIVS FROM LAST STRESS PERIOD

 REUSING RIVS FROM LAST STRESS PERIOD

 REUSING RCHS FROM LAST STRESS PERIOD
 UBDSV06 SAVING              DRN IN MODEL GWF_1            PACKAGE GWF_1           CONNECTED TO MODEL GWF_1            PACKAGE DRN_SYS1         ON UNIT   1018 AT TIME STEP      1, STRESS PERIOD     41
 UBDSV06 SAVING              RIV IN MODEL GWF_1            PACKAGE GWF_1           CONNECTED TO MODEL GWF_1            PACKAGE RIV_SYS1         ON UNIT   1018 AT TIME STEP      1, STRESS PERIOD     41
 UBDSV06 SAVING              RIV IN MODEL GWF_1            PACKAGE GWF_1           CONNECTED TO MODEL GWF_1            PACKAGE RIV_SYS2         ON UNIT   1018 AT TIME STEP      1, STRESS PERIOD     41

 HEAD WILL BE SAVED ON UNIT 1017 AT END OF TIME STEP    1, STRESS PERIOD   41


  VOLUME BUDGET FOR ENTIRE MODEL AT END OF TIME STEP    1, STRESS PERIOD  41
  ---------------------------------------------------------------------------------------------------

     CUMULATIVE VOLUME      L**3       RATES FOR THIS TIME STEP      L**3/T          PACKAGE NAME    
     ------------------                 ------------------------                     ----------------

           IN:                                      IN:
           ---                                      ---
              STO-SS =      207324.1113                STO-SS =        1115.3691     STORAGE                          
                 DRN =           0.0000                   DRN =           0.0000     DRN_SYS1                         
                 RIV =       17194.9361                   RIV =         945.8344     RIV_SYS1                         
                 RIV =           0.0000                   RIV =           0.0000     RIV_SYS2                         
                 RCH =           0.0000                   RCH =           0.0000     RCH_MSW                          

            TOTAL IN =      224519.0473              TOTAL IN =        2061.2035

          OUT:                                     OUT:
          ----                                     ----
              STO-SS =           0.0000                STO-SS =           0.0000     STORAGE                          
                 DRN =        5251.9280                   DRN =          43.5771     DRN_SYS1                         
                 RIV =      205184.2733                   RIV =        1900.7719     RIV_SYS1                         
                 RIV =       14082.8977                   RIV =         116.8597     RIV_SYS2                         
                 RCH =           0.0000                   RCH =           0.0000     RCH_MSW                          

           TOTAL OUT =      224519.0989             TOTAL OUT =        2061.2087

            IN - OUT =      -5.1582E-02              IN - OUT =      -5.1816E-03

 PERCENT DISCREPANCY =          -0.00     PERCENT DISCREPANCY =          -0.00




         TIME SUMMARY AT END OF TIME STEP    1 IN STRESS PERIOD   41
                    SECONDS     MINUTES      HOURS       DAYS        YEARS
                    -----------------------------------------------------------
   TIME STEP LENGTH  86400.      1440.0      24.000      1.0000     2.73785E-03
 STRESS PERIOD TIME  86400.      1440.0      24.000      1.0000     2.73785E-03
         TOTAL TIME 3.54240E+06  59040.      984.00      41.000     0.11225    


end timestep


start timestep kper="42" kstp="1" mode="normal"

 #Stressperiod Save Options

 BEGIN READING OUTPUT CONTROL FOR STRESS PERIOD 42
      ALL TIME STEPS WILL BE SAVED
      ALL TIME STEPS WILL BE SAVED

 END READING OUTPUT CONTROL FOR STRESS PERIOD 42


 PROCESSING STORAGE PERIOD DATA
 END PROCESSING STORAGE PERIOD DATA


 STRESS PERIOD 42 IS TRANSIENT


 REUSING DRNS FROM LAST STRESS PERIOD

 REUSING RIVS FROM LAST STRESS PERIOD

 REUSING RIVS FROM LAST STRESS PERIOD

 REUSING RCHS FROM LAST STRESS PERIOD
 UBDSV06 SAVING              DRN IN MODEL GWF_1            PACKAGE GWF_1           CONNECTED TO MODEL GWF_1            PACKAGE DRN_SYS1         ON UNIT   1018 AT TIME STEP      1, STRESS PERIOD     42
 UBDSV06 SAVING              RIV IN MODEL GWF_1            PACKAGE GWF_1           CONNECTED TO MODEL GWF_1            PACKAGE RIV_SYS1         ON UNIT   1018 AT TIME STEP      1, STRESS PERIOD     42
 UBDSV06 SAVING              RIV IN MODEL GWF_1            PACKAGE GWF_1           CONNECTED TO MODEL GWF_1            PACKAGE RIV_SYS2         ON UNIT   1018 AT TIME STEP      1, STRESS PERIOD     42

 HEAD WILL BE SAVED ON UNIT 1017 AT END OF TIME STEP    1, STRESS PERIOD   42


  VOLUME BUDGET FOR ENTIRE MODEL AT END OF TIME STEP    1, STRESS PERIOD  42
  ---------------------------------------------------------------------------------------------------

     CUMULATIVE VOLUME      L**3       RATES FOR THIS TIME STEP      L**3/T          PACKAGE NAME    
     ------------------                 ------------------------                     ----------------

           IN:                                      IN:
           ---                                      ---
              STO-SS =      208380.5743                STO-SS =        1056.4630     STORAGE                          
                 DRN =           0.0000                   DRN =           0.0000     DRN_SYS1                         
                 RIV =       18156.8780                   RIV =         961.9419     RIV_SYS1                         
                 RIV =           0.0000                   RIV =           0.0000     RIV_SYS2                         
                 RCH =           0.0000                   RCH =           0.0000     RCH_MSW                          

            TOTAL IN =      226537.4522              TOTAL IN =        2018.4049

          OUT:                                     OUT:
          ----                                     ----
              STO-SS =           0.0000                STO-SS =           0.0000     STORAGE                          
                 DRN =        5293.7462                   DRN =          41.8182     DRN_SYS1                         
                 RIV =      207048.1701                   RIV =        1863.8968     RIV_SYS1                         
                 RIV =       14195.5925                   RIV =         112.6948     RIV_SYS2                         
                 RCH =           0.0000                   RCH =           0.0000     RCH_MSW                          

           TOTAL OUT =      226537.5087             TOTAL OUT =        2018.4098

            IN - OUT =      -5.6502E-02              IN - OUT =      -4.9200E-03

 PERCENT DISCREPANCY =          -0.00     PERCENT DISCREPANCY =          -0.00




         TIME SUMMARY AT END OF TIME STEP    1 IN STRESS PERIOD   42
                    SECONDS     MINUTES      HOURS       DAYS        YEARS
                    -----------------------------------------------------------
   TIME STEP LENGTH  86400.      1440.0      24.000      1.0000     2.73785E-03
 STRESS PERIOD TIME  86400.      1440.0      24.000      1.0000     2.73785E-03
         TOTAL TIME 3.62880E+06  60480.      1008.0      42.000     0.11499    


end timestep


start timestep kper="43" kstp="1" mode="normal"

 #Stressperiod Save Options

 BEGIN READING OUTPUT CONTROL FOR STRESS PERIOD 43
      ALL TIME STEPS WILL BE SAVED
      ALL TIME STEPS WILL BE SAVED

 END READING OUTPUT CONTROL FOR STRESS PERIOD 43


 PROCESSING STORAGE PERIOD DATA
 END PROCESSING STORAGE PERIOD DATA


 STRESS PERIOD 43 IS TRANSIENT


 REUSING DRNS FROM LAST STRESS PERIOD

 REUSING RIVS FROM LAST STRESS PERIOD

 REUSING RIVS FROM LAST STRESS PERIOD

 REUSING RCHS FROM LAST STRESS PERIOD
 UBDSV06 SAVING              DRN IN MODEL GWF_1            PACKAGE GWF_1           CONNECTED TO MODEL GWF_1            PACKAGE DRN_SYS1         ON UNIT   1018 AT TIME STEP      1, STRESS PERIOD     43
 UBDSV06 SAVING              RIV IN MODEL GWF_1            PACKAGE GWF_1           CONNECTED TO MODEL GWF_1            PACKAGE RIV_SYS1         ON UNIT   1018 AT TIME STEP      1, STRESS PERIOD     43
 UBDSV06 SAVING              RIV IN MODEL GWF_1            PACKAGE GWF_1           CONNECTED TO MODEL GWF_1            PACKAGE RIV_SYS2         ON UNIT   1018 AT TIME STEP      1, STRESS PERIOD     43

 HEAD WILL BE SAVED ON UNIT 1017 AT END OF TIME STEP    1, STRESS PERIOD   43


  VOLUME BUDGET FOR ENTIRE MODEL AT END OF TIME STEP    1, STRESS PERIOD  43
  ---------------------------------------------------------------------------------------------------

     CUMULATIVE VOLUME      L**3       RATES FOR THIS TIME STEP      L**3/T          PACKAGE NAME    
     ------------------                 ------------------------                     ----------------

           IN:                                      IN:
           ---                                      ---
              STO-SS =      209381.2804                STO-SS =        1000.7062     STORAGE                          
                 DRN =           0.0000                   DRN =           0.0000     DRN_SYS1                         
                 RIV =       19134.0402                   RIV =         977.1623     RIV_SYS1                         
                 RIV =           0.0000                   RIV =           0.0000     RIV_SYS2                         
                 RCH =           0.0000                   RCH =           0.0000     RCH_MSW                          

            TOTAL IN =      228515.3207              TOTAL IN =        1977.8684

          OUT:                                     OUT:
          ----                                     ----
              STO-SS =           0.0000                STO-SS =           0.0000     STORAGE                          
                 DRN =        5333.8953                   DRN =          40.1492     DRN_SYS1                         
                 RIV =      208877.1363                   RIV =        1828.9663     RIV_SYS1                         
                 RIV =       14304.3502                   RIV =         108.7577     RIV_SYS2                         
                 RCH =           0.0000                   RCH =           0.0000     RCH_MSW                          

           TOTAL OUT =      228515.3818             TOTAL OUT =        1977.8731

            IN - OUT =      -6.1171E-02              IN - OUT =      -4.6698E-03

 PERCENT DISCREPANCY =          -0.00     PERCENT DISCREPANCY =          -0.00




         TIME SUMMARY AT END OF TIME STEP    1 IN STRESS PERIOD   43
                    SECONDS     MINUTES      HOURS       DAYS        YEARS
                    -----------------------------------------------------------
   TIME STEP LENGTH  86400.      1440.0      24.000      1.0000     2.73785E-03
 STRESS PERIOD TIME  86400.      1440.0      24.000      1.0000     2.73785E-03
         TOTAL TIME 3.71520E+06  61920.      1032.0      43.000     0.11773    


end timestep


start timestep kper="44" kstp="1" mode="normal"

 #Stressperiod Save Options

 BEGIN READING OUTPUT CONTROL FOR STRESS PERIOD 44
      ALL TIME STEPS WILL BE SAVED
      ALL TIME STEPS WILL BE SAVED

 END READING OUTPUT CONTROL FOR STRESS PERIOD 44


 PROCESSING STORAGE PERIOD DATA
 END PROCESSING STORAGE PERIOD DATA


 STRESS PERIOD 44 IS TRANSIENT


 REUSING DRNS FROM LAST STRESS PERIOD

 REUSING RIVS FROM LAST STRESS PERIOD

 REUSING RIVS FROM LAST STRESS PERIOD

 REUSING RCHS FROM LAST STRESS PERIOD
 UBDSV06 SAVING              DRN IN MODEL GWF_1            PACKAGE GWF_1           CONNECTED TO MODEL GWF_1            PACKAGE DRN_SYS1         ON UNIT   1018 AT TIME STEP      1, STRESS PERIOD     44
 UBDSV06 SAVING              RIV IN MODEL GWF_1            PACKAGE GWF_1           CONNECTED TO MODEL GWF_1            PACKAGE RIV_SYS1         ON UNIT   1018 AT TIME STEP      1, STRESS PERIOD     44
 UBDSV06 SAVING              RIV IN MODEL GWF_1            PACKAGE GWF_1           CONNECTED TO MODEL GWF_1            PACKAGE RIV_SYS2         ON UNIT   1018 AT TIME STEP      1, STRESS PERIOD     44

 HEAD WILL BE SAVED ON UNIT 1017 AT END OF TIME STEP    1, STRESS PERIOD   44


  VOLUME BUDGET FOR ENTIRE MODEL AT END OF TIME STEP    1, STRESS PERIOD  44
  ---------------------------------------------------------------------------------------------------

     CUMULATIVE VOLUME      L**3       RATES FOR THIS TIME STEP      L**3/T          PACKAGE NAME    
     ------------------                 ------------------------                     ----------------

           IN:                                      IN:
           ---                                      ---
              STO-SS =      210329.2056                STO-SS =         947.9252     STORAGE                          
                 DRN =           0.0000                   DRN =           0.0000     DRN_SYS1                         
                 RIV =       20125.5881                   RIV =         991.5479     RIV_SYS1                         
                 RIV =           0.0000                   RIV =           0.0000     RIV_SYS2                         
                 RCH =           0.0000                   RCH =           0.0000     RCH_MSW                          

            TOTAL IN =      230454.7937              TOTAL IN =        1939.4731

          OUT:                                     OUT:
          ----                                     ----
              STO-SS =           0.0000                STO-SS =           0.0000     STORAGE                          
                 DRN =        5372.4608                   DRN =          38.5655     DRN_SYS1                         
                 RIV =      210673.0129                   RIV =        1795.8766     RIV_SYS1                         
                 RIV =       14409.3856                   RIV =         105.0354     RIV_SYS2                         
                 RCH =           0.0000                   RCH =           0.0000     RCH_MSW                          

           TOTAL OUT =      230454.8593             TOTAL OUT =        1939.4775

            IN - OUT =      -6.5602E-02              IN - OUT =      -4.4308E-03

 PERCENT DISCREPANCY =          -0.00     PERCENT DISCREPANCY =          -0.00




         TIME SUMMARY AT END OF TIME STEP    1 IN STRESS PERIOD   44
                    SECONDS     MINUTES      HOURS       DAYS        YEARS
                    -----------------------------------------------------------
   TIME STEP LENGTH  86400.      1440.0      24.000      1.0000     2.73785E-03
 STRESS PERIOD TIME  86400.      1440.0      24.000      1.0000     2.73785E-03
         TOTAL TIME 3.80160E+06  63360.      1056.0      44.000     0.12047    


end timestep


start timestep kper="45" kstp="1" mode="normal"

 #Stressperiod Save Options

 BEGIN READING OUTPUT CONTROL FOR STRESS PERIOD 45
      ALL TIME STEPS WILL BE SAVED
      ALL TIME STEPS WILL BE SAVED

 END READING OUTPUT CONTROL FOR STRESS PERIOD 45


 PROCESSING STORAGE PERIOD DATA
 END PROCESSING STORAGE PERIOD DATA


 STRESS PERIOD 45 IS TRANSIENT


 REUSING DRNS FROM LAST STRESS PERIOD

 REUSING RIVS FROM LAST STRESS PERIOD

 REUSING RIVS FROM LAST STRESS PERIOD

 REUSING RCHS FROM LAST STRESS PERIOD
 UBDSV06 SAVING              DRN IN MODEL GWF_1            PACKAGE GWF_1           CONNECTED TO MODEL GWF_1            PACKAGE DRN_SYS1         ON UNIT   1018 AT TIME STEP      1, STRESS PERIOD     45
 UBDSV06 SAVING              RIV IN MODEL GWF_1            PACKAGE GWF_1           CONNECTED TO MODEL GWF_1            PACKAGE RIV_SYS1         ON UNIT   1018 AT TIME STEP      1, STRESS PERIOD     45
 UBDSV06 SAVING              RIV IN MODEL GWF_1            PACKAGE GWF_1           CONNECTED TO MODEL GWF_1            PACKAGE RIV_SYS2         ON UNIT   1018 AT TIME STEP      1, STRESS PERIOD     45

 HEAD WILL BE SAVED ON UNIT 1017 AT END OF TIME STEP    1, STRESS PERIOD   45


  VOLUME BUDGET FOR ENTIRE MODEL AT END OF TIME STEP    1, STRESS PERIOD  45
  ---------------------------------------------------------------------------------------------------

     CUMULATIVE VOLUME      L**3       RATES FOR THIS TIME STEP      L**3/T          PACKAGE NAME    
     ------------------                 ------------------------                     ----------------

           IN:                                      IN:
           ---                                      ---
              STO-SS =      211227.1624                STO-SS =         897.9568     STORAGE                          
                 DRN =           0.0000                   DRN =           0.0000     DRN_SYS1                         
                 RIV =       21130.7833                   RIV =        1005.1952     RIV_SYS1                         
                 RIV =           0.0000                   RIV =           0.0000     RIV_SYS2                         
                 RCH =           0.0000                   RCH =           0.0000     RCH_MSW                          

            TOTAL IN =      232357.9458              TOTAL IN =        1903.1520

          OUT:                                     OUT:
          ----                                     ----
              STO-SS =           0.0000                STO-SS =           0.0000     STORAGE                          
                 DRN =        5409.5237                   DRN =          37.0629     DRN_SYS1                         
                 RIV =      212437.5902                   RIV =        1764.5773     RIV_SYS1                         
                 RIV =       14510.9016                   RIV =         101.5160     RIV_SYS2                         
                 RCH =           0.0000                   RCH =           0.0000     RCH_MSW                          

           TOTAL OUT =      232358.0156             TOTAL OUT =        1903.1562

            IN - OUT =      -6.9805E-02              IN - OUT =      -4.2028E-03

 PERCENT DISCREPANCY =          -0.00     PERCENT DISCREPANCY =          -0.00




         TIME SUMMARY AT END OF TIME STEP    1 IN STRESS PERIOD   45
                    SECONDS     MINUTES      HOURS       DAYS        YEARS
                    -----------------------------------------------------------
   TIME STEP LENGTH  86400.      1440.0      24.000      1.0000     2.73785E-03
 STRESS PERIOD TIME  86400.      1440.0      24.000      1.0000     2.73785E-03
         TOTAL TIME 3.88800E+06  64800.      1080.0      45.000     0.12320    


end timestep


start timestep kper="46" kstp="1" mode="normal"

 #Stressperiod Save Options

 BEGIN READING OUTPUT CONTROL FOR STRESS PERIOD 46
      ALL TIME STEPS WILL BE SAVED
      ALL TIME STEPS WILL BE SAVED

 END READING OUTPUT CONTROL FOR STRESS PERIOD 46


 PROCESSING STORAGE PERIOD DATA
 END PROCESSING STORAGE PERIOD DATA


 STRESS PERIOD 46 IS TRANSIENT


 REUSING DRNS FROM LAST STRESS PERIOD

 REUSING RIVS FROM LAST STRESS PERIOD

 REUSING RIVS FROM LAST STRESS PERIOD

 REUSING RCHS FROM LAST STRESS PERIOD
 UBDSV06 SAVING              DRN IN MODEL GWF_1            PACKAGE GWF_1           CONNECTED TO MODEL GWF_1            PACKAGE DRN_SYS1         ON UNIT   1018 AT TIME STEP      1, STRESS PERIOD     46
 UBDSV06 SAVING              RIV IN MODEL GWF_1            PACKAGE GWF_1           CONNECTED TO MODEL GWF_1            PACKAGE RIV_SYS1         ON UNIT   1018 AT TIME STEP      1, STRESS PERIOD     46
 UBDSV06 SAVING              RIV IN MODEL GWF_1            PACKAGE GWF_1           CONNECTED TO MODEL GWF_1            PACKAGE RIV_SYS2         ON UNIT   1018 AT TIME STEP      1, STRESS PERIOD     46

 HEAD WILL BE SAVED ON UNIT 1017 AT END OF TIME STEP    1, STRESS PERIOD   46


  VOLUME BUDGET FOR ENTIRE MODEL AT END OF TIME STEP    1, STRESS PERIOD  46
  ---------------------------------------------------------------------------------------------------

     CUMULATIVE VOLUME      L**3       RATES FOR THIS TIME STEP      L**3/T          PACKAGE NAME    
     ------------------                 ------------------------                     ----------------

           IN:                                      IN:
           ---                                      ---
              STO-SS =      212077.8099                STO-SS =         850.6475     STORAGE                          
                 DRN =           0.0000                   DRN =           0.0000     DRN_SYS1                         
                 RIV =       22149.1854                   RIV =        1018.4021     RIV_SYS1                         
                 RIV =           0.0000                   RIV =           0.0000     RIV_SYS2                         
                 RCH =           0.0000                   RCH =           0.0000     RCH_MSW                          

            TOTAL IN =      234226.9953              TOTAL IN =        1869.0495

          OUT:                                     OUT:
          ----                                     ----
              STO-SS =           0.0000                STO-SS =           0.0000     STORAGE                          
                 DRN =        5445.1609                   DRN =          35.6371     DRN_SYS1                         
                 RIV =      214172.8183                   RIV =        1735.2281     RIV_SYS1                         
                 RIV =       14609.0899                   RIV =          98.1883     RIV_SYS2                         
                 RCH =           0.0000                   RCH =           0.0000     RCH_MSW                          

           TOTAL OUT =      234227.0691             TOTAL OUT =        1869.0535

            IN - OUT =      -7.3790E-02              IN - OUT =      -3.9853E-03

 PERCENT DISCREPANCY =          -0.00     PERCENT DISCREPANCY =          -0.00




         TIME SUMMARY AT END OF TIME STEP    1 IN STRESS PERIOD   46
                    SECONDS     MINUTES      HOURS       DAYS        YEARS
                    -----------------------------------------------------------
   TIME STEP LENGTH  86400.      1440.0      24.000      1.0000     2.73785E-03
 STRESS PERIOD TIME  86400.      1440.0      24.000      1.0000     2.73785E-03
         TOTAL TIME 3.97440E+06  66240.      1104.0      46.000     0.12594    


end timestep


start timestep kper="47" kstp="1" mode="normal"

 #Stressperiod Save Options

 BEGIN READING OUTPUT CONTROL FOR STRESS PERIOD 47
      ALL TIME STEPS WILL BE SAVED
      ALL TIME STEPS WILL BE SAVED

 END READING OUTPUT CONTROL FOR STRESS PERIOD 47


 PROCESSING STORAGE PERIOD DATA
 END PROCESSING STORAGE PERIOD DATA


 STRESS PERIOD 47 IS TRANSIENT


 REUSING DRNS FROM LAST STRESS PERIOD

 REUSING RIVS FROM LAST STRESS PERIOD

 REUSING RIVS FROM LAST STRESS PERIOD

 REUSING RCHS FROM LAST STRESS PERIOD
 UBDSV06 SAVING              DRN IN MODEL GWF_1            PACKAGE GWF_1           CONNECTED TO MODEL GWF_1            PACKAGE DRN_SYS1         ON UNIT   1018 AT TIME STEP      1, STRESS PERIOD     47
 UBDSV06 SAVING              RIV IN MODEL GWF_1            PACKAGE GWF_1           CONNECTED TO MODEL GWF_1            PACKAGE RIV_SYS1         ON UNIT   1018 AT TIME STEP      1, STRESS PERIOD     47
 UBDSV06 SAVING              RIV IN MODEL GWF_1            PACKAGE GWF_1           CONNECTED TO MODEL GWF_1            PACKAGE RIV_SYS2         ON UNIT   1018 AT TIME STEP      1, STRESS PERIOD     47

 HEAD WILL BE SAVED ON UNIT 1017 AT END OF TIME STEP    1, STRESS PERIOD   47


  VOLUME BUDGET FOR ENTIRE MODEL AT END OF TIME STEP    1, STRESS PERIOD  47
  ---------------------------------------------------------------------------------------------------

     CUMULATIVE VOLUME      L**3       RATES FOR THIS TIME STEP      L**3/T          PACKAGE NAME    
     ------------------                 ------------------------                     ----------------

           IN:                                      IN:
           ---                                      ---
              STO-SS =      212883.6623                STO-SS =         805.8524     STORAGE                          
                 DRN =           0.0000                   DRN =           0.0000     DRN_SYS1                         
                 RIV =       23180.0774                   RIV =        1030.8920     RIV_SYS1                         
                 RIV =           0.0000                   RIV =           0.0000     RIV_SYS2                         
                 RCH =           0.0000                   RCH =           0.0000     RCH_MSW                          

            TOTAL IN =      236063.7397              TOTAL IN =        1836.7444

          OUT:                                     OUT:
          ----                                     ----
              STO-SS =           0.0000                STO-SS =           0.0000     STORAGE                          
                 DRN =        5479.4452                   DRN =          34.2843     DRN_SYS1                         
                 RIV =      215880.2405                   RIV =        1707.4223     RIV_SYS1                         
                 RIV =       14704.1315                   RIV =          95.0416     RIV_SYS2                         
                 RCH =           0.0000                   RCH =           0.0000     RCH_MSW                          

           TOTAL OUT =      236063.8173             TOTAL OUT =        1836.7482

            IN - OUT =      -7.7568E-02              IN - OUT =      -3.7782E-03

 PERCENT DISCREPANCY =          -0.00     PERCENT DISCREPANCY =          -0.00




         TIME SUMMARY AT END OF TIME STEP    1 IN STRESS PERIOD   47
                    SECONDS     MINUTES      HOURS       DAYS        YEARS
                    -----------------------------------------------------------
   TIME STEP LENGTH  86400.      1440.0      24.000      1.0000     2.73785E-03
 STRESS PERIOD TIME  86400.      1440.0      24.000      1.0000     2.73785E-03
         TOTAL TIME 4.06080E+06  67680.      1128.0      47.000     0.12868    


end timestep


start timestep kper="48" kstp="1" mode="normal"

 #Stressperiod Save Options

 BEGIN READING OUTPUT CONTROL FOR STRESS PERIOD 48
      ALL TIME STEPS WILL BE SAVED
      ALL TIME STEPS WILL BE SAVED

 END READING OUTPUT CONTROL FOR STRESS PERIOD 48


 PROCESSING STORAGE PERIOD DATA
 END PROCESSING STORAGE PERIOD DATA


 STRESS PERIOD 48 IS TRANSIENT


 REUSING DRNS FROM LAST STRESS PERIOD

 REUSING RIVS FROM LAST STRESS PERIOD

 REUSING RIVS FROM LAST STRESS PERIOD

 REUSING RCHS FROM LAST STRESS PERIOD
 UBDSV06 SAVING              DRN IN MODEL GWF_1            PACKAGE GWF_1           CONNECTED TO MODEL GWF_1            PACKAGE DRN_SYS1         ON UNIT   1018 AT TIME STEP      1, STRESS PERIOD     48
 UBDSV06 SAVING              RIV IN MODEL GWF_1            PACKAGE GWF_1           CONNECTED TO MODEL GWF_1            PACKAGE RIV_SYS1         ON UNIT   1018 AT TIME STEP      1, STRESS PERIOD     48
 UBDSV06 SAVING              RIV IN MODEL GWF_1            PACKAGE GWF_1           CONNECTED TO MODEL GWF_1            PACKAGE RIV_SYS2         ON UNIT   1018 AT TIME STEP      1, STRESS PERIOD     48

 HEAD WILL BE SAVED ON UNIT 1017 AT END OF TIME STEP    1, STRESS PERIOD   48


  VOLUME BUDGET FOR ENTIRE MODEL AT END OF TIME STEP    1, STRESS PERIOD  48
  ---------------------------------------------------------------------------------------------------

     CUMULATIVE VOLUME      L**3       RATES FOR THIS TIME STEP      L**3/T          PACKAGE NAME    
     ------------------                 ------------------------                     ----------------

           IN:                                      IN:
           ---                                      ---
              STO-SS =      213647.0975                STO-SS =         763.4352     STORAGE                          
                 DRN =           0.0000                   DRN =           0.0000     DRN_SYS1                         
                 RIV =       24222.7833                   RIV =        1042.7059     RIV_SYS1                         
                 RIV =           0.0000                   RIV =           0.0000     RIV_SYS2                         
                 RCH =           0.0000                   RCH =           0.0000     RCH_MSW                          

            TOTAL IN =      237869.8808              TOTAL IN =        1806.1411

          OUT:                                     OUT:
          ----                                     ----
              STO-SS =           0.0000                STO-SS =           0.0000     STORAGE                          
                 DRN =        5512.4460                   DRN =          33.0008     DRN_SYS1                         
                 RIV =      217561.3186                   RIV =        1681.0781     RIV_SYS1                         
                 RIV =       14796.1973                   RIV =          92.0658     RIV_SYS2                         
                 RCH =           0.0000                   RCH =           0.0000     RCH_MSW                          

           TOTAL OUT =      237869.9620             TOTAL OUT =        1806.1447

            IN - OUT =      -8.1150E-02              IN - OUT =      -3.5811E-03

 PERCENT DISCREPANCY =          -0.00     PERCENT DISCREPANCY =          -0.00




         TIME SUMMARY AT END OF TIME STEP    1 IN STRESS PERIOD   48
                    SECONDS     MINUTES      HOURS       DAYS        YEARS
                    -----------------------------------------------------------
   TIME STEP LENGTH  86400.      1440.0      24.000      1.0000     2.73785E-03
 STRESS PERIOD TIME  86400.      1440.0      24.000      1.0000     2.73785E-03
         TOTAL TIME 4.14720E+06  69120.      1152.0      48.000     0.13142    


end timestep


start timestep kper="49" kstp="1" mode="normal"

 #Stressperiod Save Options

 BEGIN READING OUTPUT CONTROL FOR STRESS PERIOD 49
      ALL TIME STEPS WILL BE SAVED
      ALL TIME STEPS WILL BE SAVED

 END READING OUTPUT CONTROL FOR STRESS PERIOD 49


 PROCESSING STORAGE PERIOD DATA
 END PROCESSING STORAGE PERIOD DATA


 STRESS PERIOD 49 IS TRANSIENT


 REUSING DRNS FROM LAST STRESS PERIOD

 REUSING RIVS FROM LAST STRESS PERIOD

 REUSING RIVS FROM LAST STRESS PERIOD

 REUSING RCHS FROM LAST STRESS PERIOD
 UBDSV06 SAVING              DRN IN MODEL GWF_1            PACKAGE GWF_1           CONNECTED TO MODEL GWF_1            PACKAGE DRN_SYS1         ON UNIT   1018 AT TIME STEP      1, STRESS PERIOD     49
 UBDSV06 SAVING              RIV IN MODEL GWF_1            PACKAGE GWF_1           CONNECTED TO MODEL GWF_1            PACKAGE RIV_SYS1         ON UNIT   1018 AT TIME STEP      1, STRESS PERIOD     49
 UBDSV06 SAVING              RIV IN MODEL GWF_1            PACKAGE GWF_1           CONNECTED TO MODEL GWF_1            PACKAGE RIV_SYS2         ON UNIT   1018 AT TIME STEP      1, STRESS PERIOD     49

 HEAD WILL BE SAVED ON UNIT 1017 AT END OF TIME STEP    1, STRESS PERIOD   49


  VOLUME BUDGET FOR ENTIRE MODEL AT END OF TIME STEP    1, STRESS PERIOD  49
  ---------------------------------------------------------------------------------------------------

     CUMULATIVE VOLUME      L**3       RATES FOR THIS TIME STEP      L**3/T          PACKAGE NAME    
     ------------------                 ------------------------                     ----------------

           IN:                                      IN:
           ---                                      ---
              STO-SS =      214370.3647                STO-SS =         723.2672     STORAGE                          
                 DRN =           0.0000                   DRN =           0.0000     DRN_SYS1                         
                 RIV =       25276.8970                   RIV =        1054.1137     RIV_SYS1                         
                 RIV =           0.0000                   RIV =           0.0000     RIV_SYS2                         
                 RCH =           0.0000                   RCH =           0.0000     RCH_MSW                          

            TOTAL IN =      239647.2617              TOTAL IN =        1777.3809

          OUT:                                     OUT:
          ----                                     ----
              STO-SS =           0.0000                STO-SS =           0.0000     STORAGE                          
                 DRN =        5544.2290                   DRN =          31.7830     DRN_SYS1                         
                 RIV =      219217.6684                   RIV =        1656.3498     RIV_SYS1                         
                 RIV =       14885.4488                   RIV =          89.2515     RIV_SYS2                         
                 RCH =           0.0000                   RCH =           0.0000     RCH_MSW                          

           TOTAL OUT =      239647.3462             TOTAL OUT =        1777.3842

            IN - OUT =      -8.4543E-02              IN - OUT =      -3.3936E-03

 PERCENT DISCREPANCY =          -0.00     PERCENT DISCREPANCY =          -0.00




         TIME SUMMARY AT END OF TIME STEP    1 IN STRESS PERIOD   49
                    SECONDS     MINUTES      HOURS       DAYS        YEARS
                    -----------------------------------------------------------
   TIME STEP LENGTH  86400.      1440.0      24.000      1.0000     2.73785E-03
 STRESS PERIOD TIME  86400.      1440.0      24.000      1.0000     2.73785E-03
         TOTAL TIME 4.23360E+06  70560.      1176.0      49.000     0.13415    


end timestep


start timestep kper="50" kstp="1" mode="normal"

 #Stressperiod Save Options

 BEGIN READING OUTPUT CONTROL FOR STRESS PERIOD 50
      ALL TIME STEPS WILL BE SAVED
      ALL TIME STEPS WILL BE SAVED

 END READING OUTPUT CONTROL FOR STRESS PERIOD 50


 PROCESSING STORAGE PERIOD DATA
 END PROCESSING STORAGE PERIOD DATA


 STRESS PERIOD 50 IS TRANSIENT


 REUSING DRNS FROM LAST STRESS PERIOD

 REUSING RIVS FROM LAST STRESS PERIOD

 REUSING RIVS FROM LAST STRESS PERIOD

 REUSING RCHS FROM LAST STRESS PERIOD
 UBDSV06 SAVING              DRN IN MODEL GWF_1            PACKAGE GWF_1           CONNECTED TO MODEL GWF_1            PACKAGE DRN_SYS1         ON UNIT   1018 AT TIME STEP      1, STRESS PERIOD     50
 UBDSV06 SAVING              RIV IN MODEL GWF_1            PACKAGE GWF_1           CONNECTED TO MODEL GWF_1            PACKAGE RIV_SYS1         ON UNIT   1018 AT TIME STEP      1, STRESS PERIOD     50
 UBDSV06 SAVING              RIV IN MODEL GWF_1            PACKAGE GWF_1           CONNECTED TO MODEL GWF_1            PACKAGE RIV_SYS2         ON UNIT   1018 AT TIME STEP      1, STRESS PERIOD     50

 HEAD WILL BE SAVED ON UNIT 1017 AT END OF TIME STEP    1, STRESS PERIOD   50


  VOLUME BUDGET FOR ENTIRE MODEL AT END OF TIME STEP    1, STRESS PERIOD  50
  ---------------------------------------------------------------------------------------------------

     CUMULATIVE VOLUME      L**3       RATES FOR THIS TIME STEP      L**3/T          PACKAGE NAME    
     ------------------                 ------------------------                     ----------------

           IN:                                      IN:
           ---                                      ---
              STO-SS =      215055.5917                STO-SS =         685.2270     STORAGE                          
                 DRN =           0.0000                   DRN =           0.0000     DRN_SYS1                         
                 RIV =       26342.3643                   RIV =        1065.4673     RIV_SYS1                         
                 RIV =           0.0000                   RIV =           0.0000     RIV_SYS2                         
                 RCH =           0.0000                   RCH =           0.0000     RCH_MSW                          

            TOTAL IN =      241397.9560              TOTAL IN =        1750.6943

          OUT:                                     OUT:
          ----                                     ----
              STO-SS =           0.0000                STO-SS =           0.0000     STORAGE                          
                 DRN =        5574.8565                   DRN =          30.6275     DRN_SYS1                         
                 RIV =      220851.1487                   RIV =        1633.4803     RIV_SYS1                         
                 RIV =       14972.0386                   RIV =          86.5898     RIV_SYS2                         
                 RCH =           0.0000                   RCH =           0.0000     RCH_MSW                          

           TOTAL OUT =      241398.0438             TOTAL OUT =        1750.6975

            IN - OUT =      -8.7758E-02              IN - OUT =      -3.2153E-03

 PERCENT DISCREPANCY =          -0.00     PERCENT DISCREPANCY =          -0.00




         TIME SUMMARY AT END OF TIME STEP    1 IN STRESS PERIOD   50
                    SECONDS     MINUTES      HOURS       DAYS        YEARS
                    -----------------------------------------------------------
   TIME STEP LENGTH  86400.      1440.0      24.000      1.0000     2.73785E-03
 STRESS PERIOD TIME  86400.      1440.0      24.000      1.0000     2.73785E-03
         TOTAL TIME 4.32000E+06  72000.      1200.0      50.000     0.13689    


end timestep


start timestep kper="51" kstp="1" mode="normal"

 #Stressperiod Save Options

 BEGIN READING OUTPUT CONTROL FOR STRESS PERIOD 51
      ALL TIME STEPS WILL BE SAVED
      ALL TIME STEPS WILL BE SAVED

 END READING OUTPUT CONTROL FOR STRESS PERIOD 51


 PROCESSING STORAGE PERIOD DATA
 END PROCESSING STORAGE PERIOD DATA


 STRESS PERIOD 51 IS TRANSIENT


 REUSING DRNS FROM LAST STRESS PERIOD

 REUSING RIVS FROM LAST STRESS PERIOD

 REUSING RIVS FROM LAST STRESS PERIOD

 REUSING RCHS FROM LAST STRESS PERIOD
 UBDSV06 SAVING              DRN IN MODEL GWF_1            PACKAGE GWF_1           CONNECTED TO MODEL GWF_1            PACKAGE DRN_SYS1         ON UNIT   1018 AT TIME STEP      1, STRESS PERIOD     51
 UBDSV06 SAVING              RIV IN MODEL GWF_1            PACKAGE GWF_1           CONNECTED TO MODEL GWF_1            PACKAGE RIV_SYS1         ON UNIT   1018 AT TIME STEP      1, STRESS PERIOD     51
 UBDSV06 SAVING              RIV IN MODEL GWF_1            PACKAGE GWF_1           CONNECTED TO MODEL GWF_1            PACKAGE RIV_SYS2         ON UNIT   1018 AT TIME STEP      1, STRESS PERIOD     51

 HEAD WILL BE SAVED ON UNIT 1017 AT END OF TIME STEP    1, STRESS PERIOD   51


  VOLUME BUDGET FOR ENTIRE MODEL AT END OF TIME STEP    1, STRESS PERIOD  51
  ---------------------------------------------------------------------------------------------------

     CUMULATIVE VOLUME      L**3       RATES FOR THIS TIME STEP      L**3/T          PACKAGE NAME    
     ------------------                 ------------------------                     ----------------

           IN:                                      IN:
           ---                                      ---
              STO-SS =      215704.7919                STO-SS =         649.2002     STORAGE                          
                 DRN =           0.0000                   DRN =           0.0000     DRN_SYS1                         
                 RIV =       27418.5757                   RIV =        1076.2114     RIV_SYS1                         
                 RIV =           0.0000                   RIV =           0.0000     RIV_SYS2                         
                 RCH =           0.0000                   RCH =           0.0000     RCH_MSW                          

            TOTAL IN =      243123.3676              TOTAL IN =        1725.4116

          OUT:                                     OUT:
          ----                                     ----
              STO-SS =           0.0000                STO-SS =           0.0000     STORAGE                          
                 DRN =        5604.3877                   DRN =          29.5312     DRN_SYS1                         
                 RIV =      222462.9599                   RIV =        1611.8112     RIV_SYS1                         
                 RIV =       15056.1108                   RIV =          84.0723     RIV_SYS2                         
                 RCH =           0.0000                   RCH =           0.0000     RCH_MSW                          

           TOTAL OUT =      243123.4584             TOTAL OUT =        1725.4146

            IN - OUT =      -9.0804E-02              IN - OUT =      -3.0459E-03

 PERCENT DISCREPANCY =          -0.00     PERCENT DISCREPANCY =          -0.00




         TIME SUMMARY AT END OF TIME STEP    1 IN STRESS PERIOD   51
                    SECONDS     MINUTES      HOURS       DAYS        YEARS
                    -----------------------------------------------------------
   TIME STEP LENGTH  86400.      1440.0      24.000      1.0000     2.73785E-03
 STRESS PERIOD TIME  86400.      1440.0      24.000      1.0000     2.73785E-03
         TOTAL TIME 4.40640E+06  73440.      1224.0      51.000     0.13963    


end timestep


start timestep kper="52" kstp="1" mode="normal"

 #Stressperiod Save Options

 BEGIN READING OUTPUT CONTROL FOR STRESS PERIOD 52
      ALL TIME STEPS WILL BE SAVED
      ALL TIME STEPS WILL BE SAVED

 END READING OUTPUT CONTROL FOR STRESS PERIOD 52


 PROCESSING STORAGE PERIOD DATA
 END PROCESSING STORAGE PERIOD DATA


 STRESS PERIOD 52 IS TRANSIENT


 REUSING DRNS FROM LAST STRESS PERIOD

 REUSING RIVS FROM LAST STRESS PERIOD

 REUSING RIVS FROM LAST STRESS PERIOD

 REUSING RCHS FROM LAST STRESS PERIOD
 UBDSV06 SAVING              DRN IN MODEL GWF_1            PACKAGE GWF_1           CONNECTED TO MODEL GWF_1            PACKAGE DRN_SYS1         ON UNIT   1018 AT TIME STEP      1, STRESS PERIOD     52
 UBDSV06 SAVING              RIV IN MODEL GWF_1            PACKAGE GWF_1           CONNECTED TO MODEL GWF_1            PACKAGE RIV_SYS1         ON UNIT   1018 AT TIME STEP      1, STRESS PERIOD     52
 UBDSV06 SAVING              RIV IN MODEL GWF_1            PACKAGE GWF_1           CONNECTED TO MODEL GWF_1            PACKAGE RIV_SYS2         ON UNIT   1018 AT TIME STEP      1, STRESS PERIOD     52

 HEAD WILL BE SAVED ON UNIT 1017 AT END OF TIME STEP    1, STRESS PERIOD   52


  VOLUME BUDGET FOR ENTIRE MODEL AT END OF TIME STEP    1, STRESS PERIOD  52
  ---------------------------------------------------------------------------------------------------

     CUMULATIVE VOLUME      L**3       RATES FOR THIS TIME STEP      L**3/T          PACKAGE NAME    
     ------------------                 ------------------------                     ----------------

           IN:                                      IN:
           ---                                      ---
              STO-SS =      216319.8705                STO-SS =         615.0786     STORAGE                          
                 DRN =           0.0000                   DRN =           0.0000     DRN_SYS1                         
                 RIV =       28504.9556                   RIV =        1086.3799     RIV_SYS1                         
                 RIV =           0.0000                   RIV =           0.0000     RIV_SYS2                         
                 RCH =           0.0000                   RCH =           0.0000     RCH_MSW                          

            TOTAL IN =      244824.8261              TOTAL IN =        1701.4585

          OUT:                                     OUT:
          ----                                     ----
              STO-SS =           0.0000                STO-SS =           0.0000     STORAGE                          
                 DRN =        5632.8788                   DRN =          28.4911     DRN_SYS1                         
                 RIV =      224054.2392                   RIV =        1591.2793     RIV_SYS1                         
                 RIV =       15137.8018                   RIV =          81.6910     RIV_SYS2                         
                 RCH =           0.0000                   RCH =           0.0000     RCH_MSW                          

           TOTAL OUT =      244824.9198             TOTAL OUT =        1701.4614

            IN - OUT =      -9.3689E-02              IN - OUT =      -2.8851E-03

 PERCENT DISCREPANCY =          -0.00     PERCENT DISCREPANCY =          -0.00




         TIME SUMMARY AT END OF TIME STEP    1 IN STRESS PERIOD   52
                    SECONDS     MINUTES      HOURS       DAYS        YEARS
                    -----------------------------------------------------------
   TIME STEP LENGTH  86400.      1440.0      24.000      1.0000     2.73785E-03
 STRESS PERIOD TIME  86400.      1440.0      24.000      1.0000     2.73785E-03
         TOTAL TIME 4.49280E+06  74880.      1248.0      52.000     0.14237    


end timestep


start timestep kper="53" kstp="1" mode="normal"

 #Stressperiod Save Options

 BEGIN READING OUTPUT CONTROL FOR STRESS PERIOD 53
      ALL TIME STEPS WILL BE SAVED
      ALL TIME STEPS WILL BE SAVED

 END READING OUTPUT CONTROL FOR STRESS PERIOD 53


 PROCESSING STORAGE PERIOD DATA
 END PROCESSING STORAGE PERIOD DATA


 STRESS PERIOD 53 IS TRANSIENT


 REUSING DRNS FROM LAST STRESS PERIOD

 REUSING RIVS FROM LAST STRESS PERIOD

 REUSING RIVS FROM LAST STRESS PERIOD

 REUSING RCHS FROM LAST STRESS PERIOD
 UBDSV06 SAVING              DRN IN MODEL GWF_1            PACKAGE GWF_1           CONNECTED TO MODEL GWF_1            PACKAGE DRN_SYS1         ON UNIT   1018 AT TIME STEP      1, STRESS PERIOD     53
 UBDSV06 SAVING              RIV IN MODEL GWF_1            PACKAGE GWF_1           CONNECTED TO MODEL GWF_1            PACKAGE RIV_SYS1         ON UNIT   1018 AT TIME STEP      1, STRESS PERIOD     53
 UBDSV06 SAVING              RIV IN MODEL GWF_1            PACKAGE GWF_1           CONNECTED TO MODEL GWF_1            PACKAGE RIV_SYS2         ON UNIT   1018 AT TIME STEP      1, STRESS PERIOD     53

 HEAD WILL BE SAVED ON UNIT 1017 AT END OF TIME STEP    1, STRESS PERIOD   53


  VOLUME BUDGET FOR ENTIRE MODEL AT END OF TIME STEP    1, STRESS PERIOD  53
  ---------------------------------------------------------------------------------------------------

     CUMULATIVE VOLUME      L**3       RATES FOR THIS TIME STEP      L**3/T          PACKAGE NAME    
     ------------------                 ------------------------                     ----------------

           IN:                                      IN:
           ---                                      ---
              STO-SS =      216902.6305                STO-SS =         582.7600     STORAGE                          
                 DRN =           0.0000                   DRN =           0.0000     DRN_SYS1                         
                 RIV =       29600.9602                   RIV =        1096.0047     RIV_SYS1                         
                 RIV =           0.0000                   RIV =           0.0000     RIV_SYS2                         
                 RCH =           0.0000                   RCH =           0.0000     RCH_MSW                          

            TOTAL IN =      246503.5908              TOTAL IN =        1678.7647

          OUT:                                     OUT:
          ----                                     ----
              STO-SS =           0.0000                STO-SS =           0.0000     STORAGE                          
                 DRN =        5660.3831                   DRN =          27.5043     DRN_SYS1                         
                 RIV =      225626.0639                   RIV =        1571.8247     RIV_SYS1                         
                 RIV =       15217.2403                   RIV =          79.4384     RIV_SYS2                         
                 RCH =           0.0000                   RCH =           0.0000     RCH_MSW                          

           TOTAL OUT =      246503.6872             TOTAL OUT =        1678.7674

            IN - OUT =      -9.6422E-02              IN - OUT =      -2.7324E-03

 PERCENT DISCREPANCY =          -0.00     PERCENT DISCREPANCY =          -0.00




         TIME SUMMARY AT END OF TIME STEP    1 IN STRESS PERIOD   53
                    SECONDS     MINUTES      HOURS       DAYS        YEARS
                    -----------------------------------------------------------
   TIME STEP LENGTH  86400.      1440.0      24.000      1.0000     2.73785E-03
 STRESS PERIOD TIME  86400.      1440.0      24.000      1.0000     2.73785E-03
         TOTAL TIME 4.57920E+06  76320.      1272.0      53.000     0.14511    


end timestep


start timestep kper="54" kstp="1" mode="normal"

 #Stressperiod Save Options

 BEGIN READING OUTPUT CONTROL FOR STRESS PERIOD 54
      ALL TIME STEPS WILL BE SAVED
      ALL TIME STEPS WILL BE SAVED

 END READING OUTPUT CONTROL FOR STRESS PERIOD 54


 PROCESSING STORAGE PERIOD DATA
 END PROCESSING STORAGE PERIOD DATA


 STRESS PERIOD 54 IS TRANSIENT


 REUSING DRNS FROM LAST STRESS PERIOD

 REUSING RIVS FROM LAST STRESS PERIOD

 REUSING RIVS FROM LAST STRESS PERIOD

 REUSING RCHS FROM LAST STRESS PERIOD
 UBDSV06 SAVING              DRN IN MODEL GWF_1            PACKAGE GWF_1           CONNECTED TO MODEL GWF_1            PACKAGE DRN_SYS1         ON UNIT   1018 AT TIME STEP      1, STRESS PERIOD     54
 UBDSV06 SAVING              RIV IN MODEL GWF_1            PACKAGE GWF_1           CONNECTED TO MODEL GWF_1            PACKAGE RIV_SYS1         ON UNIT   1018 AT TIME STEP      1, STRESS PERIOD     54
 UBDSV06 SAVING              RIV IN MODEL GWF_1            PACKAGE GWF_1           CONNECTED TO MODEL GWF_1            PACKAGE RIV_SYS2         ON UNIT   1018 AT TIME STEP      1, STRESS PERIOD     54

 HEAD WILL BE SAVED ON UNIT 1017 AT END OF TIME STEP    1, STRESS PERIOD   54


  VOLUME BUDGET FOR ENTIRE MODEL AT END OF TIME STEP    1, STRESS PERIOD  54
  ---------------------------------------------------------------------------------------------------

     CUMULATIVE VOLUME      L**3       RATES FOR THIS TIME STEP      L**3/T          PACKAGE NAME    
     ------------------                 ------------------------                     ----------------

           IN:                                      IN:
           ---                                      ---
              STO-SS =      217454.7786                STO-SS =         552.1480     STORAGE                          
                 DRN =           0.0000                   DRN =           0.0000     DRN_SYS1                         
                 RIV =       30706.0760                   RIV =        1105.1157     RIV_SYS1                         
                 RIV =           0.0000                   RIV =           0.0000     RIV_SYS2                         
                 RCH =           0.0000                   RCH =           0.0000     RCH_MSW                          

            TOTAL IN =      248160.8545              TOTAL IN =        1657.2638

          OUT:                                     OUT:
          ----                                     ----
              STO-SS =           0.0000                STO-SS =           0.0000     STORAGE                          
                 DRN =        5686.9511                   DRN =          26.5680     DRN_SYS1                         
                 RIV =      227179.4546                   RIV =        1553.3907     RIV_SYS1                         
                 RIV =       15294.5479                   RIV =          77.3076     RIV_SYS2                         
                 RCH =           0.0000                   RCH =           0.0000     RCH_MSW                          

           TOTAL OUT =      248160.9536             TOTAL OUT =        1657.2664

            IN - OUT =      -9.9009E-02              IN - OUT =      -2.5875E-03

 PERCENT DISCREPANCY =          -0.00     PERCENT DISCREPANCY =          -0.00




         TIME SUMMARY AT END OF TIME STEP    1 IN STRESS PERIOD   54
                    SECONDS     MINUTES      HOURS       DAYS        YEARS
                    -----------------------------------------------------------
   TIME STEP LENGTH  86400.      1440.0      24.000      1.0000     2.73785E-03
 STRESS PERIOD TIME  86400.      1440.0      24.000      1.0000     2.73785E-03
         TOTAL TIME 4.66560E+06  77760.      1296.0      54.000     0.14784    


end timestep


start timestep kper="55" kstp="1" mode="normal"

 #Stressperiod Save Options

 BEGIN READING OUTPUT CONTROL FOR STRESS PERIOD 55
      ALL TIME STEPS WILL BE SAVED
      ALL TIME STEPS WILL BE SAVED

 END READING OUTPUT CONTROL FOR STRESS PERIOD 55


 PROCESSING STORAGE PERIOD DATA
 END PROCESSING STORAGE PERIOD DATA


 STRESS PERIOD 55 IS TRANSIENT


 REUSING DRNS FROM LAST STRESS PERIOD

 REUSING RIVS FROM LAST STRESS PERIOD

 REUSING RIVS FROM LAST STRESS PERIOD

 REUSING RCHS FROM LAST STRESS PERIOD
 UBDSV06 SAVING              DRN IN MODEL GWF_1            PACKAGE GWF_1           CONNECTED TO MODEL GWF_1            PACKAGE DRN_SYS1         ON UNIT   1018 AT TIME STEP      1, STRESS PERIOD     55
 UBDSV06 SAVING              RIV IN MODEL GWF_1            PACKAGE GWF_1           CONNECTED TO MODEL GWF_1            PACKAGE RIV_SYS1         ON UNIT   1018 AT TIME STEP      1, STRESS PERIOD     55
 UBDSV06 SAVING              RIV IN MODEL GWF_1            PACKAGE GWF_1           CONNECTED TO MODEL GWF_1            PACKAGE RIV_SYS2         ON UNIT   1018 AT TIME STEP      1, STRESS PERIOD     55

 HEAD WILL BE SAVED ON UNIT 1017 AT END OF TIME STEP    1, STRESS PERIOD   55


  VOLUME BUDGET FOR ENTIRE MODEL AT END OF TIME STEP    1, STRESS PERIOD  55
  ---------------------------------------------------------------------------------------------------

     CUMULATIVE VOLUME      L**3       RATES FOR THIS TIME STEP      L**3/T          PACKAGE NAME    
     ------------------                 ------------------------                     ----------------

           IN:                                      IN:
           ---                                      ---
              STO-SS =      217977.9301                STO-SS =         523.1515     STORAGE                          
                 DRN =           0.0000                   DRN =           0.0000     DRN_SYS1                         
                 RIV =       31819.8172                   RIV =        1113.7413     RIV_SYS1                         
                 RIV =           0.0000                   RIV =           0.0000     RIV_SYS2                         
                 RCH =           0.0000                   RCH =           0.0000     RCH_MSW                          

            TOTAL IN =      249797.7473              TOTAL IN =        1636.8928

          OUT:                                     OUT:
          ----                                     ----
              STO-SS =           0.0000                STO-SS =           0.0000     STORAGE                          
                 DRN =        5712.6309                   DRN =          25.6798     DRN_SYS1                         
                 RIV =      228715.3781                   RIV =        1535.9236     RIV_SYS1                         
                 RIV =       15369.8397                   RIV =          75.2918     RIV_SYS2                         
                 RCH =           0.0000                   RCH =           0.0000     RCH_MSW                          

           TOTAL OUT =      249797.8488             TOTAL OUT =        1636.8952

            IN - OUT =          -0.1015              IN - OUT =      -2.4501E-03

 PERCENT DISCREPANCY =          -0.00     PERCENT DISCREPANCY =          -0.00




         TIME SUMMARY AT END OF TIME STEP    1 IN STRESS PERIOD   55
                    SECONDS     MINUTES      HOURS       DAYS        YEARS
                    -----------------------------------------------------------
   TIME STEP LENGTH  86400.      1440.0      24.000      1.0000     2.73785E-03
 STRESS PERIOD TIME  86400.      1440.0      24.000      1.0000     2.73785E-03
         TOTAL TIME 4.75200E+06  79200.      1320.0      55.000     0.15058    


end timestep


start timestep kper="56" kstp="1" mode="normal"

 #Stressperiod Save Options

 BEGIN READING OUTPUT CONTROL FOR STRESS PERIOD 56
      ALL TIME STEPS WILL BE SAVED
      ALL TIME STEPS WILL BE SAVED

 END READING OUTPUT CONTROL FOR STRESS PERIOD 56


 PROCESSING STORAGE PERIOD DATA
 END PROCESSING STORAGE PERIOD DATA


 STRESS PERIOD 56 IS TRANSIENT


 REUSING DRNS FROM LAST STRESS PERIOD

 REUSING RIVS FROM LAST STRESS PERIOD

 REUSING RIVS FROM LAST STRESS PERIOD

 REUSING RCHS FROM LAST STRESS PERIOD
 UBDSV06 SAVING              DRN IN MODEL GWF_1            PACKAGE GWF_1           CONNECTED TO MODEL GWF_1            PACKAGE DRN_SYS1         ON UNIT   1018 AT TIME STEP      1, STRESS PERIOD     56
 UBDSV06 SAVING              RIV IN MODEL GWF_1            PACKAGE GWF_1           CONNECTED TO MODEL GWF_1            PACKAGE RIV_SYS1         ON UNIT   1018 AT TIME STEP      1, STRESS PERIOD     56
 UBDSV06 SAVING              RIV IN MODEL GWF_1            PACKAGE GWF_1           CONNECTED TO MODEL GWF_1            PACKAGE RIV_SYS2         ON UNIT   1018 AT TIME STEP      1, STRESS PERIOD     56

 HEAD WILL BE SAVED ON UNIT 1017 AT END OF TIME STEP    1, STRESS PERIOD   56


  VOLUME BUDGET FOR ENTIRE MODEL AT END OF TIME STEP    1, STRESS PERIOD  56
  ---------------------------------------------------------------------------------------------------

     CUMULATIVE VOLUME      L**3       RATES FOR THIS TIME STEP      L**3/T          PACKAGE NAME    
     ------------------                 ------------------------                     ----------------

           IN:                                      IN:
           ---                                      ---
              STO-SS =      218473.6144                STO-SS =         495.6843     STORAGE                          
                 DRN =           0.0000                   DRN =           0.0000     DRN_SYS1                         
                 RIV =       32941.7250                   RIV =        1121.9078     RIV_SYS1                         
                 RIV =           0.0000                   RIV =           0.0000     RIV_SYS2                         
                 RCH =           0.0000                   RCH =           0.0000     RCH_MSW                          

            TOTAL IN =      251415.3395              TOTAL IN =        1617.5921

          OUT:                                     OUT:
          ----                                     ----
              STO-SS =           0.0000                STO-SS =           0.0000     STORAGE                          
                 DRN =        5737.4681                   DRN =          24.8371     DRN_SYS1                         
                 RIV =      230234.7506                   RIV =        1519.3725     RIV_SYS1                         
                 RIV =       15443.2245                   RIV =          73.3848     RIV_SYS2                         
                 RCH =           0.0000                   RCH =           0.0000     RCH_MSW                          

           TOTAL OUT =      251415.4432             TOTAL OUT =        1617.5944

            IN - OUT =          -0.1038              IN - OUT =      -2.3198E-03

 PERCENT DISCREPANCY =          -0.00     PERCENT DISCREPANCY =          -0.00




         TIME SUMMARY AT END OF TIME STEP    1 IN STRESS PERIOD   56
                    SECONDS     MINUTES      HOURS       DAYS        YEARS
                    -----------------------------------------------------------
   TIME STEP LENGTH  86400.      1440.0      24.000      1.0000     2.73785E-03
 STRESS PERIOD TIME  86400.      1440.0      24.000      1.0000     2.73785E-03
         TOTAL TIME 4.83840E+06  80640.      1344.0      56.000     0.15332    


end timestep


start timestep kper="57" kstp="1" mode="normal"

 #Stressperiod Save Options

 BEGIN READING OUTPUT CONTROL FOR STRESS PERIOD 57
      ALL TIME STEPS WILL BE SAVED
      ALL TIME STEPS WILL BE SAVED

 END READING OUTPUT CONTROL FOR STRESS PERIOD 57


 PROCESSING STORAGE PERIOD DATA
 END PROCESSING STORAGE PERIOD DATA


 STRESS PERIOD 57 IS TRANSIENT


 REUSING DRNS FROM LAST STRESS PERIOD

 REUSING RIVS FROM LAST STRESS PERIOD

 REUSING RIVS FROM LAST STRESS PERIOD

 REUSING RCHS FROM LAST STRESS PERIOD
 UBDSV06 SAVING              DRN IN MODEL GWF_1            PACKAGE GWF_1           CONNECTED TO MODEL GWF_1            PACKAGE DRN_SYS1         ON UNIT   1018 AT TIME STEP      1, STRESS PERIOD     57
 UBDSV06 SAVING              RIV IN MODEL GWF_1            PACKAGE GWF_1           CONNECTED TO MODEL GWF_1            PACKAGE RIV_SYS1         ON UNIT   1018 AT TIME STEP      1, STRESS PERIOD     57
 UBDSV06 SAVING              RIV IN MODEL GWF_1            PACKAGE GWF_1           CONNECTED TO MODEL GWF_1            PACKAGE RIV_SYS2         ON UNIT   1018 AT TIME STEP      1, STRESS PERIOD     57

 HEAD WILL BE SAVED ON UNIT 1017 AT END OF TIME STEP    1, STRESS PERIOD   57


  VOLUME BUDGET FOR ENTIRE MODEL AT END OF TIME STEP    1, STRESS PERIOD  57
  ---------------------------------------------------------------------------------------------------

     CUMULATIVE VOLUME      L**3       RATES FOR THIS TIME STEP      L**3/T          PACKAGE NAME    
     ------------------                 ------------------------                     ----------------

           IN:                                      IN:
           ---                                      ---
              STO-SS =      218943.2794                STO-SS =         469.6650     STORAGE                          
                 DRN =           0.0000                   DRN =           0.0000     DRN_SYS1                         
                 RIV =       34071.3654                   RIV =        1129.6404     RIV_SYS1                         
                 RIV =           0.0000                   RIV =           0.0000     RIV_SYS2                         
                 RCH =           0.0000                   RCH =           0.0000     RCH_MSW                          

            TOTAL IN =      253014.6448              TOTAL IN =        1599.3054

          OUT:                                     OUT:
          ----                                     ----
              STO-SS =           0.0000                STO-SS =           0.0000     STORAGE                          
                 DRN =        5761.5058                   DRN =          24.0377     DRN_SYS1                         
                 RIV =      231738.4399                   RIV =        1503.6893     RIV_SYS1                         
                 RIV =       15514.8051                   RIV =          71.5806     RIV_SYS2                         
                 RCH =           0.0000                   RCH =           0.0000     RCH_MSW                          

           TOTAL OUT =      253014.7508             TOTAL OUT =        1599.3075

            IN - OUT =          -0.1060              IN - OUT =      -2.1962E-03

 PERCENT DISCREPANCY =          -0.00     PERCENT DISCREPANCY =          -0.00




         TIME SUMMARY AT END OF TIME STEP    1 IN STRESS PERIOD   57
                    SECONDS     MINUTES      HOURS       DAYS        YEARS
                    -----------------------------------------------------------
   TIME STEP LENGTH  86400.      1440.0      24.000      1.0000     2.73785E-03
 STRESS PERIOD TIME  86400.      1440.0      24.000      1.0000     2.73785E-03
         TOTAL TIME 4.92480E+06  82080.      1368.0      57.000     0.15606    


end timestep


start timestep kper="58" kstp="1" mode="normal"

 #Stressperiod Save Options

 BEGIN READING OUTPUT CONTROL FOR STRESS PERIOD 58
      ALL TIME STEPS WILL BE SAVED
      ALL TIME STEPS WILL BE SAVED

 END READING OUTPUT CONTROL FOR STRESS PERIOD 58


 PROCESSING STORAGE PERIOD DATA
 END PROCESSING STORAGE PERIOD DATA


 STRESS PERIOD 58 IS TRANSIENT


 REUSING DRNS FROM LAST STRESS PERIOD

 REUSING RIVS FROM LAST STRESS PERIOD

 REUSING RIVS FROM LAST STRESS PERIOD

 REUSING RCHS FROM LAST STRESS PERIOD
 UBDSV06 SAVING              DRN IN MODEL GWF_1            PACKAGE GWF_1           CONNECTED TO MODEL GWF_1            PACKAGE DRN_SYS1         ON UNIT   1018 AT TIME STEP      1, STRESS PERIOD     58
 UBDSV06 SAVING              RIV IN MODEL GWF_1            PACKAGE GWF_1           CONNECTED TO MODEL GWF_1            PACKAGE RIV_SYS1         ON UNIT   1018 AT TIME STEP      1, STRESS PERIOD     58
 UBDSV06 SAVING              RIV IN MODEL GWF_1            PACKAGE GWF_1           CONNECTED TO MODEL GWF_1            PACKAGE RIV_SYS2         ON UNIT   1018 AT TIME STEP      1, STRESS PERIOD     58

 HEAD WILL BE SAVED ON UNIT 1017 AT END OF TIME STEP    1, STRESS PERIOD   58


  VOLUME BUDGET FOR ENTIRE MODEL AT END OF TIME STEP    1, STRESS PERIOD  58
  ---------------------------------------------------------------------------------------------------

     CUMULATIVE VOLUME      L**3       RATES FOR THIS TIME STEP      L**3/T          PACKAGE NAME    
     ------------------                 ------------------------                     ----------------

           IN:                                      IN:
           ---                                      ---
              STO-SS =      219388.2959                STO-SS =         445.0165     STORAGE                          
                 DRN =           0.0000                   DRN =           0.0000     DRN_SYS1                         
                 RIV =       35208.3279                   RIV =        1136.9625     RIV_SYS1                         
                 RIV =           0.0000                   RIV =           0.0000     RIV_SYS2                         
                 RCH =           0.0000                   RCH =           0.0000     RCH_MSW                          

            TOTAL IN =      254596.6239              TOTAL IN =        1581.9790

          OUT:                                     OUT:
          ----                                     ----
              STO-SS =           0.0000                STO-SS =           0.0000     STORAGE                          
                 DRN =        5784.7851                   DRN =          23.2793     DRN_SYS1                         
                 RIV =      233227.2681                   RIV =        1488.8283     RIV_SYS1                         
                 RIV =       15584.6787                   RIV =          69.8736     RIV_SYS2                         
                 RCH =           0.0000                   RCH =           0.0000     RCH_MSW                          

           TOTAL OUT =      254596.7319             TOTAL OUT =        1581.9811

            IN - OUT =          -0.1081              IN - OUT =      -2.0791E-03

 PERCENT DISCREPANCY =          -0.00     PERCENT DISCREPANCY =          -0.00




         TIME SUMMARY AT END OF TIME STEP    1 IN STRESS PERIOD   58
                    SECONDS     MINUTES      HOURS       DAYS        YEARS
                    -----------------------------------------------------------
   TIME STEP LENGTH  86400.      1440.0      24.000      1.0000     2.73785E-03
 STRESS PERIOD TIME  86400.      1440.0      24.000      1.0000     2.73785E-03
         TOTAL TIME 5.01120E+06  83520.      1392.0      58.000     0.15880    


end timestep


start timestep kper="59" kstp="1" mode="normal"

 #Stressperiod Save Options

 BEGIN READING OUTPUT CONTROL FOR STRESS PERIOD 59
      ALL TIME STEPS WILL BE SAVED
      ALL TIME STEPS WILL BE SAVED

 END READING OUTPUT CONTROL FOR STRESS PERIOD 59


 PROCESSING STORAGE PERIOD DATA
 END PROCESSING STORAGE PERIOD DATA


 STRESS PERIOD 59 IS TRANSIENT


 REUSING DRNS FROM LAST STRESS PERIOD

 REUSING RIVS FROM LAST STRESS PERIOD

 REUSING RIVS FROM LAST STRESS PERIOD

 REUSING RCHS FROM LAST STRESS PERIOD
 UBDSV06 SAVING              DRN IN MODEL GWF_1            PACKAGE GWF_1           CONNECTED TO MODEL GWF_1            PACKAGE DRN_SYS1         ON UNIT   1018 AT TIME STEP      1, STRESS PERIOD     59
 UBDSV06 SAVING              RIV IN MODEL GWF_1            PACKAGE GWF_1           CONNECTED TO MODEL GWF_1            PACKAGE RIV_SYS1         ON UNIT   1018 AT TIME STEP      1, STRESS PERIOD     59
 UBDSV06 SAVING              RIV IN MODEL GWF_1            PACKAGE GWF_1           CONNECTED TO MODEL GWF_1            PACKAGE RIV_SYS2         ON UNIT   1018 AT TIME STEP      1, STRESS PERIOD     59

 HEAD WILL BE SAVED ON UNIT 1017 AT END OF TIME STEP    1, STRESS PERIOD   59


  VOLUME BUDGET FOR ENTIRE MODEL AT END OF TIME STEP    1, STRESS PERIOD  59
  ---------------------------------------------------------------------------------------------------

     CUMULATIVE VOLUME      L**3       RATES FOR THIS TIME STEP      L**3/T          PACKAGE NAME    
     ------------------                 ------------------------                     ----------------

           IN:                                      IN:
           ---                                      ---
              STO-SS =      219809.9620                STO-SS =         421.6661     STORAGE                          
                 DRN =           0.0000                   DRN =           0.0000     DRN_SYS1                         
                 RIV =       36352.2245                   RIV =        1143.8965     RIV_SYS1                         
                 RIV =           0.0000                   RIV =           0.0000     RIV_SYS2                         
                 RCH =           0.0000                   RCH =           0.0000     RCH_MSW                          

            TOTAL IN =      256162.1864              TOTAL IN =        1565.5626

          OUT:                                     OUT:
          ----                                     ----
              STO-SS =           0.0000                STO-SS =           0.0000     STORAGE                          
                 DRN =        5807.3448                   DRN =          22.5598     DRN_SYS1                         
                 RIV =      234702.0145                   RIV =        1474.7463     RIV_SYS1                         
                 RIV =       15652.9372                   RIV =          68.2585     RIV_SYS2                         
                 RCH =           0.0000                   RCH =           0.0000     RCH_MSW                          

           TOTAL OUT =      256162.2965             TOTAL OUT =        1565.5645

            IN - OUT =          -0.1100              IN - OUT =      -1.9682E-03

 PERCENT DISCREPANCY =          -0.00     PERCENT DISCREPANCY =          -0.00




         TIME SUMMARY AT END OF TIME STEP    1 IN STRESS PERIOD   59
                    SECONDS     MINUTES      HOURS       DAYS        YEARS
                    -----------------------------------------------------------
   TIME STEP LENGTH  86400.      1440.0      24.000      1.0000     2.73785E-03
 STRESS PERIOD TIME  86400.      1440.0      24.000      1.0000     2.73785E-03
         TOTAL TIME 5.09760E+06  84960.      1416.0      59.000     0.16153    


end timestep


start timestep kper="60" kstp="1" mode="normal"

 #Stressperiod Save Options

 BEGIN READING OUTPUT CONTROL FOR STRESS PERIOD 60
      ALL TIME STEPS WILL BE SAVED
      ALL TIME STEPS WILL BE SAVED

 END READING OUTPUT CONTROL FOR STRESS PERIOD 60


 PROCESSING STORAGE PERIOD DATA
 END PROCESSING STORAGE PERIOD DATA


 STRESS PERIOD 60 IS TRANSIENT


 REUSING DRNS FROM LAST STRESS PERIOD

 REUSING RIVS FROM LAST STRESS PERIOD

 REUSING RIVS FROM LAST STRESS PERIOD

 REUSING RCHS FROM LAST STRESS PERIOD
 UBDSV06 SAVING              DRN IN MODEL GWF_1            PACKAGE GWF_1           CONNECTED TO MODEL GWF_1            PACKAGE DRN_SYS1         ON UNIT   1018 AT TIME STEP      1, STRESS PERIOD     60
 UBDSV06 SAVING              RIV IN MODEL GWF_1            PACKAGE GWF_1           CONNECTED TO MODEL GWF_1            PACKAGE RIV_SYS1         ON UNIT   1018 AT TIME STEP      1, STRESS PERIOD     60
 UBDSV06 SAVING              RIV IN MODEL GWF_1            PACKAGE GWF_1           CONNECTED TO MODEL GWF_1            PACKAGE RIV_SYS2         ON UNIT   1018 AT TIME STEP      1, STRESS PERIOD     60

 HEAD WILL BE SAVED ON UNIT 1017 AT END OF TIME STEP    1, STRESS PERIOD   60


  VOLUME BUDGET FOR ENTIRE MODEL AT END OF TIME STEP    1, STRESS PERIOD  60
  ---------------------------------------------------------------------------------------------------

     CUMULATIVE VOLUME      L**3       RATES FOR THIS TIME STEP      L**3/T          PACKAGE NAME    
     ------------------                 ------------------------                     ----------------

           IN:                                      IN:
           ---                                      ---
              STO-SS =      220209.5068                STO-SS =         399.5448     STORAGE                          
                 DRN =           0.0000                   DRN =           0.0000     DRN_SYS1                         
                 RIV =       37502.6877                   RIV =        1150.4633     RIV_SYS1                         
                 RIV =           0.0000                   RIV =           0.0000     RIV_SYS2                         
                 RCH =           0.0000                   RCH =           0.0000     RCH_MSW                          

            TOTAL IN =      257712.1945              TOTAL IN =        1550.0081

          OUT:                                     OUT:
          ----                                     ----
              STO-SS =           0.0000                STO-SS =           0.0000     STORAGE                          
                 DRN =        5829.2221                   DRN =          21.8772     DRN_SYS1                         
                 RIV =      236163.4169                   RIV =        1461.4025     RIV_SYS1                         
                 RIV =       15719.6674                   RIV =          66.7302     RIV_SYS2                         
                 RCH =           0.0000                   RCH =           0.0000     RCH_MSW                          

           TOTAL OUT =      257712.3064             TOTAL OUT =        1550.0099

            IN - OUT =          -0.1119              IN - OUT =      -1.8631E-03

 PERCENT DISCREPANCY =          -0.00     PERCENT DISCREPANCY =          -0.00




         TIME SUMMARY AT END OF TIME STEP    1 IN STRESS PERIOD   60
                    SECONDS     MINUTES      HOURS       DAYS        YEARS
                    -----------------------------------------------------------
   TIME STEP LENGTH  86400.      1440.0      24.000      1.0000     2.73785E-03
 STRESS PERIOD TIME  86400.      1440.0      24.000      1.0000     2.73785E-03
         TOTAL TIME 5.18400E+06  86400.      1440.0      60.000     0.16427    


end timestep


start timestep kper="61" kstp="1" mode="normal"

 #Stressperiod Save Options

 BEGIN READING OUTPUT CONTROL FOR STRESS PERIOD 61
      ALL TIME STEPS WILL BE SAVED
      ALL TIME STEPS WILL BE SAVED

 END READING OUTPUT CONTROL FOR STRESS PERIOD 61


 PROCESSING STORAGE PERIOD DATA
 END PROCESSING STORAGE PERIOD DATA


 STRESS PERIOD 61 IS TRANSIENT


 REUSING DRNS FROM LAST STRESS PERIOD

 REUSING RIVS FROM LAST STRESS PERIOD

 REUSING RIVS FROM LAST STRESS PERIOD

 REUSING RCHS FROM LAST STRESS PERIOD
 UBDSV06 SAVING              DRN IN MODEL GWF_1            PACKAGE GWF_1           CONNECTED TO MODEL GWF_1            PACKAGE DRN_SYS1         ON UNIT   1018 AT TIME STEP      1, STRESS PERIOD     61
 UBDSV06 SAVING              RIV IN MODEL GWF_1            PACKAGE GWF_1           CONNECTED TO MODEL GWF_1            PACKAGE RIV_SYS1         ON UNIT   1018 AT TIME STEP      1, STRESS PERIOD     61
 UBDSV06 SAVING              RIV IN MODEL GWF_1            PACKAGE GWF_1           CONNECTED TO MODEL GWF_1            PACKAGE RIV_SYS2         ON UNIT   1018 AT TIME STEP      1, STRESS PERIOD     61

 HEAD WILL BE SAVED ON UNIT 1017 AT END OF TIME STEP    1, STRESS PERIOD   61


  VOLUME BUDGET FOR ENTIRE MODEL AT END OF TIME STEP    1, STRESS PERIOD  61
  ---------------------------------------------------------------------------------------------------

     CUMULATIVE VOLUME      L**3       RATES FOR THIS TIME STEP      L**3/T          PACKAGE NAME    
     ------------------                 ------------------------                     ----------------

           IN:                                      IN:
           ---                                      ---
              STO-SS =      220588.0943                STO-SS =         378.5875     STORAGE                          
                 DRN =           0.0000                   DRN =           0.0000     DRN_SYS1                         
                 RIV =       38659.3703                   RIV =        1156.6826     RIV_SYS1                         
                 RIV =           0.0000                   RIV =           0.0000     RIV_SYS2                         
                 RCH =           0.0000                   RCH =           0.0000     RCH_MSW                          

            TOTAL IN =      259247.4646              TOTAL IN =        1535.2701

          OUT:                                     OUT:
          ----                                     ----
              STO-SS =           0.0000                STO-SS =           0.0000     STORAGE                          
                 DRN =        5850.4518                   DRN =          21.2297     DRN_SYS1                         
                 RIV =      237612.1749                   RIV =        1448.7579     RIV_SYS1                         
                 RIV =       15784.9516                   RIV =          65.2842     RIV_SYS2                         
                 RCH =           0.0000                   RCH =           0.0000     RCH_MSW                          

           TOTAL OUT =      259247.5783             TOTAL OUT =        1535.2719

            IN - OUT =          -0.1136              IN - OUT =      -1.7635E-03

 PERCENT DISCREPANCY =          -0.00     PERCENT DISCREPANCY =          -0.00




         TIME SUMMARY AT END OF TIME STEP    1 IN STRESS PERIOD   61
                    SECONDS     MINUTES      HOURS       DAYS        YEARS
                    -----------------------------------------------------------
   TIME STEP LENGTH  86400.      1440.0      24.000      1.0000     2.73785E-03
 STRESS PERIOD TIME  86400.      1440.0      24.000      1.0000     2.73785E-03
         TOTAL TIME 5.27040E+06  87840.      1464.0      61.000     0.16701    


end timestep


start timestep kper="62" kstp="1" mode="normal"

 #Stressperiod Save Options

 BEGIN READING OUTPUT CONTROL FOR STRESS PERIOD 62
      ALL TIME STEPS WILL BE SAVED
      ALL TIME STEPS WILL BE SAVED

 END READING OUTPUT CONTROL FOR STRESS PERIOD 62


 PROCESSING STORAGE PERIOD DATA
 END PROCESSING STORAGE PERIOD DATA


 STRESS PERIOD 62 IS TRANSIENT


 REUSING DRNS FROM LAST STRESS PERIOD

 REUSING RIVS FROM LAST STRESS PERIOD

 REUSING RIVS FROM LAST STRESS PERIOD

 REUSING RCHS FROM LAST STRESS PERIOD
 UBDSV06 SAVING              DRN IN MODEL GWF_1            PACKAGE GWF_1           CONNECTED TO MODEL GWF_1            PACKAGE DRN_SYS1         ON UNIT   1018 AT TIME STEP      1, STRESS PERIOD     62
 UBDSV06 SAVING              RIV IN MODEL GWF_1            PACKAGE GWF_1           CONNECTED TO MODEL GWF_1            PACKAGE RIV_SYS1         ON UNIT   1018 AT TIME STEP      1, STRESS PERIOD     62
 UBDSV06 SAVING              RIV IN MODEL GWF_1            PACKAGE GWF_1           CONNECTED TO MODEL GWF_1            PACKAGE RIV_SYS2         ON UNIT   1018 AT TIME STEP      1, STRESS PERIOD     62

 HEAD WILL BE SAVED ON UNIT 1017 AT END OF TIME STEP    1, STRESS PERIOD   62


  VOLUME BUDGET FOR ENTIRE MODEL AT END OF TIME STEP    1, STRESS PERIOD  62
  ---------------------------------------------------------------------------------------------------

     CUMULATIVE VOLUME      L**3       RATES FOR THIS TIME STEP      L**3/T          PACKAGE NAME    
     ------------------                 ------------------------                     ----------------

           IN:                                      IN:
           ---                                      ---
              STO-SS =      220946.8269                STO-SS =         358.7326     STORAGE                          
                 DRN =           0.0000                   DRN =           0.0000     DRN_SYS1                         
                 RIV =       39821.9435                   RIV =        1162.5732     RIV_SYS1                         
                 RIV =           0.0000                   RIV =           0.0000     RIV_SYS2                         
                 RCH =           0.0000                   RCH =           0.0000     RCH_MSW                          

            TOTAL IN =      260768.7704              TOTAL IN =        1521.3058

          OUT:                                     OUT:
          ----                                     ----
              STO-SS =           0.0000                STO-SS =           0.0000     STORAGE                          
                 DRN =        5871.0673                   DRN =          20.6155     DRN_SYS1                         
                 RIV =      239048.9509                   RIV =        1436.7761     RIV_SYS1                         
                 RIV =       15848.8675                   RIV =          63.9159     RIV_SYS2                         
                 RCH =           0.0000                   RCH =           0.0000     RCH_MSW                          

           TOTAL OUT =      260768.8857             TOTAL OUT =        1521.3074

            IN - OUT =          -0.1153              IN - OUT =      -1.6692E-03

 PERCENT DISCREPANCY =          -0.00     PERCENT DISCREPANCY =          -0.00




         TIME SUMMARY AT END OF TIME STEP    1 IN STRESS PERIOD   62
                    SECONDS     MINUTES      HOURS       DAYS        YEARS
                    -----------------------------------------------------------
   TIME STEP LENGTH  86400.      1440.0      24.000      1.0000     2.73785E-03
 STRESS PERIOD TIME  86400.      1440.0      24.000      1.0000     2.73785E-03
         TOTAL TIME 5.35680E+06  89280.      1488.0      62.000     0.16975    


end timestep


start timestep kper="63" kstp="1" mode="normal"

 #Stressperiod Save Options

 BEGIN READING OUTPUT CONTROL FOR STRESS PERIOD 63
      ALL TIME STEPS WILL BE SAVED
      ALL TIME STEPS WILL BE SAVED

 END READING OUTPUT CONTROL FOR STRESS PERIOD 63


 PROCESSING STORAGE PERIOD DATA
 END PROCESSING STORAGE PERIOD DATA


 STRESS PERIOD 63 IS TRANSIENT


 REUSING DRNS FROM LAST STRESS PERIOD

 REUSING RIVS FROM LAST STRESS PERIOD

 REUSING RIVS FROM LAST STRESS PERIOD

 REUSING RCHS FROM LAST STRESS PERIOD
 UBDSV06 SAVING              DRN IN MODEL GWF_1            PACKAGE GWF_1           CONNECTED TO MODEL GWF_1            PACKAGE DRN_SYS1         ON UNIT   1018 AT TIME STEP      1, STRESS PERIOD     63
 UBDSV06 SAVING              RIV IN MODEL GWF_1            PACKAGE GWF_1           CONNECTED TO MODEL GWF_1            PACKAGE RIV_SYS1         ON UNIT   1018 AT TIME STEP      1, STRESS PERIOD     63
 UBDSV06 SAVING              RIV IN MODEL GWF_1            PACKAGE GWF_1           CONNECTED TO MODEL GWF_1            PACKAGE RIV_SYS2         ON UNIT   1018 AT TIME STEP      1, STRESS PERIOD     63

 HEAD WILL BE SAVED ON UNIT 1017 AT END OF TIME STEP    1, STRESS PERIOD   63


  VOLUME BUDGET FOR ENTIRE MODEL AT END OF TIME STEP    1, STRESS PERIOD  63
  ---------------------------------------------------------------------------------------------------

     CUMULATIVE VOLUME      L**3       RATES FOR THIS TIME STEP      L**3/T          PACKAGE NAME    
     ------------------                 ------------------------                     ----------------

           IN:                                      IN:
           ---                                      ---
              STO-SS =      221286.7486                STO-SS =         339.9217     STORAGE                          
                 DRN =           0.0000                   DRN =           0.0000     DRN_SYS1                         
                 RIV =       40990.3520                   RIV =        1168.4085     RIV_SYS1                         
                 RIV =           0.0000                   RIV =           0.0000     RIV_SYS2                         
                 RCH =           0.0000                   RCH =           0.0000     RCH_MSW                          

            TOTAL IN =      262277.1006              TOTAL IN =        1508.3303

          OUT:                                     OUT:
          ----                                     ----
              STO-SS =           0.0000                STO-SS =           0.0000     STORAGE                          
                 DRN =        5891.1002                   DRN =          20.0328     DRN_SYS1                         
                 RIV =      240474.6289                   RIV =        1425.6780     RIV_SYS1                         
                 RIV =       15911.4885                   RIV =          62.6210     RIV_SYS2                         
                 RCH =           0.0000                   RCH =           0.0000     RCH_MSW                          

           TOTAL OUT =      262277.2175             TOTAL OUT =        1508.3318

            IN - OUT =          -0.1169              IN - OUT =      -1.5799E-03

 PERCENT DISCREPANCY =          -0.00     PERCENT DISCREPANCY =          -0.00




         TIME SUMMARY AT END OF TIME STEP    1 IN STRESS PERIOD   63
                    SECONDS     MINUTES      HOURS       DAYS        YEARS
                    -----------------------------------------------------------
   TIME STEP LENGTH  86400.      1440.0      24.000      1.0000     2.73785E-03
 STRESS PERIOD TIME  86400.      1440.0      24.000      1.0000     2.73785E-03
         TOTAL TIME 5.44320E+06  90720.      1512.0      63.000     0.17248    


end timestep


start timestep kper="64" kstp="1" mode="normal"

 #Stressperiod Save Options

 BEGIN READING OUTPUT CONTROL FOR STRESS PERIOD 64
      ALL TIME STEPS WILL BE SAVED
      ALL TIME STEPS WILL BE SAVED

 END READING OUTPUT CONTROL FOR STRESS PERIOD 64


 PROCESSING STORAGE PERIOD DATA
 END PROCESSING STORAGE PERIOD DATA


 STRESS PERIOD 64 IS TRANSIENT


 REUSING DRNS FROM LAST STRESS PERIOD

 REUSING RIVS FROM LAST STRESS PERIOD

 REUSING RIVS FROM LAST STRESS PERIOD

 REUSING RCHS FROM LAST STRESS PERIOD
 UBDSV06 SAVING              DRN IN MODEL GWF_1            PACKAGE GWF_1           CONNECTED TO MODEL GWF_1            PACKAGE DRN_SYS1         ON UNIT   1018 AT TIME STEP      1, STRESS PERIOD     64
 UBDSV06 SAVING              RIV IN MODEL GWF_1            PACKAGE GWF_1           CONNECTED TO MODEL GWF_1            PACKAGE RIV_SYS1         ON UNIT   1018 AT TIME STEP      1, STRESS PERIOD     64
 UBDSV06 SAVING              RIV IN MODEL GWF_1            PACKAGE GWF_1           CONNECTED TO MODEL GWF_1            PACKAGE RIV_SYS2         ON UNIT   1018 AT TIME STEP      1, STRESS PERIOD     64

 HEAD WILL BE SAVED ON UNIT 1017 AT END OF TIME STEP    1, STRESS PERIOD   64


  VOLUME BUDGET FOR ENTIRE MODEL AT END OF TIME STEP    1, STRESS PERIOD  64
  ---------------------------------------------------------------------------------------------------

     CUMULATIVE VOLUME      L**3       RATES FOR THIS TIME STEP      L**3/T          PACKAGE NAME    
     ------------------                 ------------------------                     ----------------

           IN:                                      IN:
           ---                                      ---
              STO-SS =      221608.8483                STO-SS =         322.0997     STORAGE                          
                 DRN =           0.0000                   DRN =           0.0000     DRN_SYS1                         
                 RIV =       42164.3995                   RIV =        1174.0475     RIV_SYS1                         
                 RIV =           0.0000                   RIV =           0.0000     RIV_SYS2                         
                 RCH =           0.0000                   RCH =           0.0000     RCH_MSW                          

            TOTAL IN =      263773.2477              TOTAL IN =        1496.1471

          OUT:                                     OUT:
          ----                                     ----
              STO-SS =           0.0000                STO-SS =           0.0000     STORAGE                          
                 DRN =        5910.5803                   DRN =          19.4801     DRN_SYS1                         
                 RIV =      241889.9017                   RIV =        1415.2728     RIV_SYS1                         
                 RIV =       15972.8842                   RIV =          61.3957     RIV_SYS2                         
                 RCH =           0.0000                   RCH =           0.0000     RCH_MSW                          

           TOTAL OUT =      263773.3661             TOTAL OUT =        1496.1486

            IN - OUT =          -0.1184              IN - OUT =      -1.4954E-03

 PERCENT DISCREPANCY =          -0.00     PERCENT DISCREPANCY =          -0.00




         TIME SUMMARY AT END OF TIME STEP    1 IN STRESS PERIOD   64
                    SECONDS     MINUTES      HOURS       DAYS        YEARS
                    -----------------------------------------------------------
   TIME STEP LENGTH  86400.      1440.0      24.000      1.0000     2.73785E-03
 STRESS PERIOD TIME  86400.      1440.0      24.000      1.0000     2.73785E-03
         TOTAL TIME 5.52960E+06  92160.      1536.0      64.000     0.17522    


end timestep


start timestep kper="65" kstp="1" mode="normal"

 #Stressperiod Save Options

 BEGIN READING OUTPUT CONTROL FOR STRESS PERIOD 65
      ALL TIME STEPS WILL BE SAVED
      ALL TIME STEPS WILL BE SAVED

 END READING OUTPUT CONTROL FOR STRESS PERIOD 65


 PROCESSING STORAGE PERIOD DATA
 END PROCESSING STORAGE PERIOD DATA


 STRESS PERIOD 65 IS TRANSIENT


 REUSING DRNS FROM LAST STRESS PERIOD

 REUSING RIVS FROM LAST STRESS PERIOD

 REUSING RIVS FROM LAST STRESS PERIOD

 REUSING RCHS FROM LAST STRESS PERIOD
 UBDSV06 SAVING              DRN IN MODEL GWF_1            PACKAGE GWF_1           CONNECTED TO MODEL GWF_1            PACKAGE DRN_SYS1         ON UNIT   1018 AT TIME STEP      1, STRESS PERIOD     65
 UBDSV06 SAVING              RIV IN MODEL GWF_1            PACKAGE GWF_1           CONNECTED TO MODEL GWF_1            PACKAGE RIV_SYS1         ON UNIT   1018 AT TIME STEP      1, STRESS PERIOD     65
 UBDSV06 SAVING              RIV IN MODEL GWF_1            PACKAGE GWF_1           CONNECTED TO MODEL GWF_1            PACKAGE RIV_SYS2         ON UNIT   1018 AT TIME STEP      1, STRESS PERIOD     65

 HEAD WILL BE SAVED ON UNIT 1017 AT END OF TIME STEP    1, STRESS PERIOD   65


  VOLUME BUDGET FOR ENTIRE MODEL AT END OF TIME STEP    1, STRESS PERIOD  65
  ---------------------------------------------------------------------------------------------------

     CUMULATIVE VOLUME      L**3       RATES FOR THIS TIME STEP      L**3/T          PACKAGE NAME    
     ------------------                 ------------------------                     ----------------

           IN:                                      IN:
           ---                                      ---
              STO-SS =      221914.0624                STO-SS =         305.2142     STORAGE                          
                 DRN =           0.0000                   DRN =           0.0000     DRN_SYS1                         
                 RIV =       43343.7885                   RIV =        1179.3890     RIV_SYS1                         
                 RIV =           0.0000                   RIV =           0.0000     RIV_SYS2                         
                 RCH =           0.0000                   RCH =           0.0000     RCH_MSW                          

            TOTAL IN =      265257.8509              TOTAL IN =        1484.6032

          OUT:                                     OUT:
          ----                                     ----
              STO-SS =           0.0000                STO-SS =           0.0000     STORAGE                          
                 DRN =        5929.5361                   DRN =          18.9558     DRN_SYS1                         
                 RIV =      243295.3144                   RIV =        1405.4127     RIV_SYS1                         
                 RIV =       16033.1203                   RIV =          60.2361     RIV_SYS2                         
                 RCH =           0.0000                   RCH =           0.0000     RCH_MSW                          

           TOTAL OUT =      265257.9708             TOTAL OUT =        1484.6046

            IN - OUT =          -0.1198              IN - OUT =      -1.4154E-03

 PERCENT DISCREPANCY =          -0.00     PERCENT DISCREPANCY =          -0.00




         TIME SUMMARY AT END OF TIME STEP    1 IN STRESS PERIOD   65
                    SECONDS     MINUTES      HOURS       DAYS        YEARS
                    -----------------------------------------------------------
   TIME STEP LENGTH  86400.      1440.0      24.000      1.0000     2.73785E-03
 STRESS PERIOD TIME  86400.      1440.0      24.000      1.0000     2.73785E-03
         TOTAL TIME 5.61600E+06  93600.      1560.0      65.000     0.17796    


end timestep


start timestep kper="66" kstp="1" mode="normal"

 #Stressperiod Save Options

 BEGIN READING OUTPUT CONTROL FOR STRESS PERIOD 66
      ALL TIME STEPS WILL BE SAVED
      ALL TIME STEPS WILL BE SAVED

 END READING OUTPUT CONTROL FOR STRESS PERIOD 66


 PROCESSING STORAGE PERIOD DATA
 END PROCESSING STORAGE PERIOD DATA


 STRESS PERIOD 66 IS TRANSIENT


 REUSING DRNS FROM LAST STRESS PERIOD

 REUSING RIVS FROM LAST STRESS PERIOD

 REUSING RIVS FROM LAST STRESS PERIOD

 REUSING RCHS FROM LAST STRESS PERIOD
 UBDSV06 SAVING              DRN IN MODEL GWF_1            PACKAGE GWF_1           CONNECTED TO MODEL GWF_1            PACKAGE DRN_SYS1         ON UNIT   1018 AT TIME STEP      1, STRESS PERIOD     66
 UBDSV06 SAVING              RIV IN MODEL GWF_1            PACKAGE GWF_1           CONNECTED TO MODEL GWF_1            PACKAGE RIV_SYS1         ON UNIT   1018 AT TIME STEP      1, STRESS PERIOD     66
 UBDSV06 SAVING              RIV IN MODEL GWF_1            PACKAGE GWF_1           CONNECTED TO MODEL GWF_1            PACKAGE RIV_SYS2         ON UNIT   1018 AT TIME STEP      1, STRESS PERIOD     66

 HEAD WILL BE SAVED ON UNIT 1017 AT END OF TIME STEP    1, STRESS PERIOD   66


  VOLUME BUDGET FOR ENTIRE MODEL AT END OF TIME STEP    1, STRESS PERIOD  66
  ---------------------------------------------------------------------------------------------------

     CUMULATIVE VOLUME      L**3       RATES FOR THIS TIME STEP      L**3/T          PACKAGE NAME    
     ------------------                 ------------------------                     ----------------

           IN:                                      IN:
           ---                                      ---
              STO-SS =      222203.2782                STO-SS =         289.2158     STORAGE                          
                 DRN =           0.0000                   DRN =           0.0000     DRN_SYS1                         
                 RIV =       44528.2376                   RIV =        1184.4491     RIV_SYS1                         
                 RIV =           0.0000                   RIV =           0.0000     RIV_SYS2                         
                 RCH =           0.0000                   RCH =           0.0000     RCH_MSW                          

            TOTAL IN =      266731.5159              TOTAL IN =        1473.6649

          OUT:                                     OUT:
          ----                                     ----
              STO-SS =           0.0000                STO-SS =           0.0000     STORAGE                          
                 DRN =        5947.9945                   DRN =          18.4584     DRN_SYS1                         
                 RIV =      244691.3835                   RIV =        1396.0691     RIV_SYS1                         
                 RIV =       16092.2591                   RIV =          59.1387     RIV_SYS2                         
                 RCH =           0.0000                   RCH =           0.0000     RCH_MSW                          

           TOTAL OUT =      266731.6370             TOTAL OUT =        1473.6663

            IN - OUT =          -0.1211              IN - OUT =      -1.3396E-03

 PERCENT DISCREPANCY =          -0.00     PERCENT DISCREPANCY =          -0.00




         TIME SUMMARY AT END OF TIME STEP    1 IN STRESS PERIOD   66
                    SECONDS     MINUTES      HOURS       DAYS        YEARS
                    -----------------------------------------------------------
   TIME STEP LENGTH  86400.      1440.0      24.000      1.0000     2.73785E-03
 STRESS PERIOD TIME  86400.      1440.0      24.000      1.0000     2.73785E-03
         TOTAL TIME 5.70240E+06  95040.      1584.0      66.000     0.18070    


end timestep


start timestep kper="67" kstp="1" mode="normal"

 #Stressperiod Save Options

 BEGIN READING OUTPUT CONTROL FOR STRESS PERIOD 67
      ALL TIME STEPS WILL BE SAVED
      ALL TIME STEPS WILL BE SAVED

 END READING OUTPUT CONTROL FOR STRESS PERIOD 67


 PROCESSING STORAGE PERIOD DATA
 END PROCESSING STORAGE PERIOD DATA


 STRESS PERIOD 67 IS TRANSIENT


 REUSING DRNS FROM LAST STRESS PERIOD

 REUSING RIVS FROM LAST STRESS PERIOD

 REUSING RIVS FROM LAST STRESS PERIOD

 REUSING RCHS FROM LAST STRESS PERIOD
 UBDSV06 SAVING              DRN IN MODEL GWF_1            PACKAGE GWF_1           CONNECTED TO MODEL GWF_1            PACKAGE DRN_SYS1         ON UNIT   1018 AT TIME STEP      1, STRESS PERIOD     67
 UBDSV06 SAVING              RIV IN MODEL GWF_1            PACKAGE GWF_1           CONNECTED TO MODEL GWF_1            PACKAGE RIV_SYS1         ON UNIT   1018 AT TIME STEP      1, STRESS PERIOD     67
 UBDSV06 SAVING              RIV IN MODEL GWF_1            PACKAGE GWF_1           CONNECTED TO MODEL GWF_1            PACKAGE RIV_SYS2         ON UNIT   1018 AT TIME STEP      1, STRESS PERIOD     67

 HEAD WILL BE SAVED ON UNIT 1017 AT END OF TIME STEP    1, STRESS PERIOD   67


  VOLUME BUDGET FOR ENTIRE MODEL AT END OF TIME STEP    1, STRESS PERIOD  67
  ---------------------------------------------------------------------------------------------------

     CUMULATIVE VOLUME      L**3       RATES FOR THIS TIME STEP      L**3/T          PACKAGE NAME    
     ------------------                 ------------------------                     ----------------

           IN:                                      IN:
           ---                                      ---
              STO-SS =      222477.3359                STO-SS =         274.0577     STORAGE                          
                 DRN =           0.0000                   DRN =           0.0000     DRN_SYS1                         
                 RIV =       45717.4804                   RIV =        1189.2427     RIV_SYS1                         
                 RIV =           0.0000                   RIV =           0.0000     RIV_SYS2                         
                 RCH =           0.0000                   RCH =           0.0000     RCH_MSW                          

            TOTAL IN =      268194.8163              TOTAL IN =        1463.3004

          OUT:                                     OUT:
          ----                                     ----
              STO-SS =           0.0000                STO-SS =           0.0000     STORAGE                          
                 DRN =        5965.9812                   DRN =          17.9867     DRN_SYS1                         
                 RIV =      246078.5984                   RIV =        1387.2149     RIV_SYS1                         
                 RIV =       16150.3592                   RIV =          58.1002     RIV_SYS2                         
                 RCH =           0.0000                   RCH =           0.0000     RCH_MSW                          

           TOTAL OUT =      268194.9387             TOTAL OUT =        1463.3017

            IN - OUT =          -0.1224              IN - OUT =      -1.2679E-03

 PERCENT DISCREPANCY =          -0.00     PERCENT DISCREPANCY =          -0.00




         TIME SUMMARY AT END OF TIME STEP    1 IN STRESS PERIOD   67
                    SECONDS     MINUTES      HOURS       DAYS        YEARS
                    -----------------------------------------------------------
   TIME STEP LENGTH  86400.      1440.0      24.000      1.0000     2.73785E-03
 STRESS PERIOD TIME  86400.      1440.0      24.000      1.0000     2.73785E-03
         TOTAL TIME 5.78880E+06  96480.      1608.0      67.000     0.18344    


end timestep


start timestep kper="68" kstp="1" mode="normal"

 #Stressperiod Save Options

 BEGIN READING OUTPUT CONTROL FOR STRESS PERIOD 68
      ALL TIME STEPS WILL BE SAVED
      ALL TIME STEPS WILL BE SAVED

 END READING OUTPUT CONTROL FOR STRESS PERIOD 68


 PROCESSING STORAGE PERIOD DATA
 END PROCESSING STORAGE PERIOD DATA


 STRESS PERIOD 68 IS TRANSIENT


 REUSING DRNS FROM LAST STRESS PERIOD

 REUSING RIVS FROM LAST STRESS PERIOD

 REUSING RIVS FROM LAST STRESS PERIOD

 REUSING RCHS FROM LAST STRESS PERIOD
 UBDSV06 SAVING              DRN IN MODEL GWF_1            PACKAGE GWF_1           CONNECTED TO MODEL GWF_1            PACKAGE DRN_SYS1         ON UNIT   1018 AT TIME STEP      1, STRESS PERIOD     68
 UBDSV06 SAVING              RIV IN MODEL GWF_1            PACKAGE GWF_1           CONNECTED TO MODEL GWF_1            PACKAGE RIV_SYS1         ON UNIT   1018 AT TIME STEP      1, STRESS PERIOD     68
 UBDSV06 SAVING              RIV IN MODEL GWF_1            PACKAGE GWF_1           CONNECTED TO MODEL GWF_1            PACKAGE RIV_SYS2         ON UNIT   1018 AT TIME STEP      1, STRESS PERIOD     68

 HEAD WILL BE SAVED ON UNIT 1017 AT END OF TIME STEP    1, STRESS PERIOD   68


  VOLUME BUDGET FOR ENTIRE MODEL AT END OF TIME STEP    1, STRESS PERIOD  68
  ---------------------------------------------------------------------------------------------------

     CUMULATIVE VOLUME      L**3       RATES FOR THIS TIME STEP      L**3/T          PACKAGE NAME    
     ------------------                 ------------------------                     ----------------

           IN:                                      IN:
           ---                                      ---
              STO-SS =      222737.0316                STO-SS =         259.6956     STORAGE                          
                 DRN =           0.0000                   DRN =           0.0000     DRN_SYS1                         
                 RIV =       46911.2643                   RIV =        1193.7840     RIV_SYS1                         
                 RIV =           0.0000                   RIV =           0.0000     RIV_SYS2                         
                 RCH =           0.0000                   RCH =           0.0000     RCH_MSW                          

            TOTAL IN =      269648.2959              TOTAL IN =        1453.4796

          OUT:                                     OUT:
          ----                                     ----
              STO-SS =           0.0000                STO-SS =           0.0000     STORAGE                          
                 DRN =        5983.5203                   DRN =          17.5392     DRN_SYS1                         
                 RIV =      247457.4228                   RIV =        1378.8244     RIV_SYS1                         
                 RIV =       16207.4764                   RIV =          57.1172     RIV_SYS2                         
                 RCH =           0.0000                   RCH =           0.0000     RCH_MSW                          

           TOTAL OUT =      269648.4195             TOTAL OUT =        1453.4808

            IN - OUT =          -0.1236              IN - OUT =      -1.2000E-03

 PERCENT DISCREPANCY =          -0.00     PERCENT DISCREPANCY =          -0.00




         TIME SUMMARY AT END OF TIME STEP    1 IN STRESS PERIOD   68
                    SECONDS     MINUTES      HOURS       DAYS        YEARS
                    -----------------------------------------------------------
   TIME STEP LENGTH  86400.      1440.0      24.000      1.0000     2.73785E-03
 STRESS PERIOD TIME  86400.      1440.0      24.000      1.0000     2.73785E-03
         TOTAL TIME 5.87520E+06  97920.      1632.0      68.000     0.18617    


end timestep


start timestep kper="69" kstp="1" mode="normal"

 #Stressperiod Save Options

 BEGIN READING OUTPUT CONTROL FOR STRESS PERIOD 69
      ALL TIME STEPS WILL BE SAVED
      ALL TIME STEPS WILL BE SAVED

 END READING OUTPUT CONTROL FOR STRESS PERIOD 69


 PROCESSING STORAGE PERIOD DATA
 END PROCESSING STORAGE PERIOD DATA


 STRESS PERIOD 69 IS TRANSIENT


 REUSING DRNS FROM LAST STRESS PERIOD

 REUSING RIVS FROM LAST STRESS PERIOD

 REUSING RIVS FROM LAST STRESS PERIOD

 REUSING RCHS FROM LAST STRESS PERIOD
 UBDSV06 SAVING              DRN IN MODEL GWF_1            PACKAGE GWF_1           CONNECTED TO MODEL GWF_1            PACKAGE DRN_SYS1         ON UNIT   1018 AT TIME STEP      1, STRESS PERIOD     69
 UBDSV06 SAVING              RIV IN MODEL GWF_1            PACKAGE GWF_1           CONNECTED TO MODEL GWF_1            PACKAGE RIV_SYS1         ON UNIT   1018 AT TIME STEP      1, STRESS PERIOD     69
 UBDSV06 SAVING              RIV IN MODEL GWF_1            PACKAGE GWF_1           CONNECTED TO MODEL GWF_1            PACKAGE RIV_SYS2         ON UNIT   1018 AT TIME STEP      1, STRESS PERIOD     69

 HEAD WILL BE SAVED ON UNIT 1017 AT END OF TIME STEP    1, STRESS PERIOD   69


  VOLUME BUDGET FOR ENTIRE MODEL AT END OF TIME STEP    1, STRESS PERIOD  69
  ---------------------------------------------------------------------------------------------------

     CUMULATIVE VOLUME      L**3       RATES FOR THIS TIME STEP      L**3/T          PACKAGE NAME    
     ------------------                 ------------------------                     ----------------

           IN:                                      IN:
           ---                                      ---
              STO-SS =      222983.1192                STO-SS =         246.0876     STORAGE                          
                 DRN =           0.0000                   DRN =           0.0000     DRN_SYS1                         
                 RIV =       48109.3506                   RIV =        1198.0862     RIV_SYS1                         
                 RIV =           0.0000                   RIV =           0.0000     RIV_SYS2                         
                 RCH =           0.0000                   RCH =           0.0000     RCH_MSW                          

            TOTAL IN =      271092.4697              TOTAL IN =        1444.1738

          OUT:                                     OUT:
          ----                                     ----
              STO-SS =           0.0000                STO-SS =           0.0000     STORAGE                          
                 DRN =        6000.6350                   DRN =          17.1147     DRN_SYS1                         
                 RIV =      248828.2961                   RIV =        1370.8733     RIV_SYS1                         
                 RIV =       16263.6633                   RIV =          56.1869     RIV_SYS2                         
                 RCH =           0.0000                   RCH =           0.0000     RCH_MSW                          

           TOTAL OUT =      271092.5945             TOTAL OUT =        1444.1750

            IN - OUT =          -0.1248              IN - OUT =      -1.1357E-03

 PERCENT DISCREPANCY =          -0.00     PERCENT DISCREPANCY =          -0.00




         TIME SUMMARY AT END OF TIME STEP    1 IN STRESS PERIOD   69
                    SECONDS     MINUTES      HOURS       DAYS        YEARS
                    -----------------------------------------------------------
   TIME STEP LENGTH  86400.      1440.0      24.000      1.0000     2.73785E-03
 STRESS PERIOD TIME  86400.      1440.0      24.000      1.0000     2.73785E-03
         TOTAL TIME 5.96160E+06  99360.      1656.0      69.000     0.18891    


end timestep


start timestep kper="70" kstp="1" mode="normal"

 #Stressperiod Save Options

 BEGIN READING OUTPUT CONTROL FOR STRESS PERIOD 70
      ALL TIME STEPS WILL BE SAVED
      ALL TIME STEPS WILL BE SAVED

 END READING OUTPUT CONTROL FOR STRESS PERIOD 70


 PROCESSING STORAGE PERIOD DATA
 END PROCESSING STORAGE PERIOD DATA


 STRESS PERIOD 70 IS TRANSIENT


 REUSING DRNS FROM LAST STRESS PERIOD

 REUSING RIVS FROM LAST STRESS PERIOD

 REUSING RIVS FROM LAST STRESS PERIOD

 REUSING RCHS FROM LAST STRESS PERIOD
 UBDSV06 SAVING              DRN IN MODEL GWF_1            PACKAGE GWF_1           CONNECTED TO MODEL GWF_1            PACKAGE DRN_SYS1         ON UNIT   1018 AT TIME STEP      1, STRESS PERIOD     70
 UBDSV06 SAVING              RIV IN MODEL GWF_1            PACKAGE GWF_1           CONNECTED TO MODEL GWF_1            PACKAGE RIV_SYS1         ON UNIT   1018 AT TIME STEP      1, STRESS PERIOD     70
 UBDSV06 SAVING              RIV IN MODEL GWF_1            PACKAGE GWF_1           CONNECTED TO MODEL GWF_1            PACKAGE RIV_SYS2         ON UNIT   1018 AT TIME STEP      1, STRESS PERIOD     70

 HEAD WILL BE SAVED ON UNIT 1017 AT END OF TIME STEP    1, STRESS PERIOD   70


  VOLUME BUDGET FOR ENTIRE MODEL AT END OF TIME STEP    1, STRESS PERIOD  70
  ---------------------------------------------------------------------------------------------------

     CUMULATIVE VOLUME      L**3       RATES FOR THIS TIME STEP      L**3/T          PACKAGE NAME    
     ------------------                 ------------------------                     ----------------

           IN:                                      IN:
           ---                                      ---
              STO-SS =      223216.3130                STO-SS =         233.1938     STORAGE                          
                 DRN =           0.0000                   DRN =           0.0000     DRN_SYS1                         
                 RIV =       49311.5128                   RIV =        1202.1622     RIV_SYS1                         
                 RIV =           0.0000                   RIV =           0.0000     RIV_SYS2                         
                 RCH =           0.0000                   RCH =           0.0000     RCH_MSW                          

            TOTAL IN =      272527.8258              TOTAL IN =        1435.3561

          OUT:                                     OUT:
          ----                                     ----
              STO-SS =           0.0000                STO-SS =           0.0000     STORAGE                          
                 DRN =        6017.3471                   DRN =          16.7121     DRN_SYS1                         
                 RIV =      250191.6347                   RIV =        1363.3386     RIV_SYS1                         
                 RIV =       16318.9697                   RIV =          55.3064     RIV_SYS2                         
                 RCH =           0.0000                   RCH =           0.0000     RCH_MSW                          

           TOTAL OUT =      272527.9516             TOTAL OUT =        1435.3571

            IN - OUT =          -0.1258              IN - OUT =      -1.0749E-03

 PERCENT DISCREPANCY =          -0.00     PERCENT DISCREPANCY =          -0.00




         TIME SUMMARY AT END OF TIME STEP    1 IN STRESS PERIOD   70
                    SECONDS     MINUTES      HOURS       DAYS        YEARS
                    -----------------------------------------------------------
   TIME STEP LENGTH  86400.      1440.0      24.000      1.0000     2.73785E-03
 STRESS PERIOD TIME  86400.      1440.0      24.000      1.0000     2.73785E-03
         TOTAL TIME 6.04800E+06 1.00800E+05  1680.0      70.000     0.19165    


end timestep


start timestep kper="71" kstp="1" mode="normal"

 #Stressperiod Save Options

 BEGIN READING OUTPUT CONTROL FOR STRESS PERIOD 71
      ALL TIME STEPS WILL BE SAVED
      ALL TIME STEPS WILL BE SAVED

 END READING OUTPUT CONTROL FOR STRESS PERIOD 71


 PROCESSING STORAGE PERIOD DATA
 END PROCESSING STORAGE PERIOD DATA


 STRESS PERIOD 71 IS TRANSIENT


 REUSING DRNS FROM LAST STRESS PERIOD

 REUSING RIVS FROM LAST STRESS PERIOD

 REUSING RIVS FROM LAST STRESS PERIOD

 REUSING RCHS FROM LAST STRESS PERIOD
 UBDSV06 SAVING              DRN IN MODEL GWF_1            PACKAGE GWF_1           CONNECTED TO MODEL GWF_1            PACKAGE DRN_SYS1         ON UNIT   1018 AT TIME STEP      1, STRESS PERIOD     71
 UBDSV06 SAVING              RIV IN MODEL GWF_1            PACKAGE GWF_1           CONNECTED TO MODEL GWF_1            PACKAGE RIV_SYS1         ON UNIT   1018 AT TIME STEP      1, STRESS PERIOD     71
 UBDSV06 SAVING              RIV IN MODEL GWF_1            PACKAGE GWF_1           CONNECTED TO MODEL GWF_1            PACKAGE RIV_SYS2         ON UNIT   1018 AT TIME STEP      1, STRESS PERIOD     71

 HEAD WILL BE SAVED ON UNIT 1017 AT END OF TIME STEP    1, STRESS PERIOD   71


  VOLUME BUDGET FOR ENTIRE MODEL AT END OF TIME STEP    1, STRESS PERIOD  71
  ---------------------------------------------------------------------------------------------------

     CUMULATIVE VOLUME      L**3       RATES FOR THIS TIME STEP      L**3/T          PACKAGE NAME    
     ------------------                 ------------------------                     ----------------

           IN:                                      IN:
           ---                                      ---
              STO-SS =      223437.2897                STO-SS =         220.9767     STORAGE                          
                 DRN =           0.0000                   DRN =           0.0000     DRN_SYS1                         
                 RIV =       50517.5368                   RIV =        1206.0240     RIV_SYS1                         
                 RIV =           0.0000                   RIV =           0.0000     RIV_SYS2                         
                 RCH =           0.0000                   RCH =           0.0000     RCH_MSW                          

            TOTAL IN =      273954.8264              TOTAL IN =        1427.0007

          OUT:                                     OUT:
          ----                                     ----
              STO-SS =           0.0000                STO-SS =           0.0000     STORAGE                          
                 DRN =        6033.6773                   DRN =          16.3302     DRN_SYS1                         
                 RIV =      251547.8332                   RIV =        1356.1985     RIV_SYS1                         
                 RIV =       16373.4427                   RIV =          54.4730     RIV_SYS2                         
                 RCH =           0.0000                   RCH =           0.0000     RCH_MSW                          

           TOTAL OUT =      273954.9533             TOTAL OUT =        1427.0017

            IN - OUT =          -0.1268              IN - OUT =      -1.0174E-03

 PERCENT DISCREPANCY =          -0.00     PERCENT DISCREPANCY =          -0.00




         TIME SUMMARY AT END OF TIME STEP    1 IN STRESS PERIOD   71
                    SECONDS     MINUTES      HOURS       DAYS        YEARS
                    -----------------------------------------------------------
   TIME STEP LENGTH  86400.      1440.0      24.000      1.0000     2.73785E-03
 STRESS PERIOD TIME  86400.      1440.0      24.000      1.0000     2.73785E-03
         TOTAL TIME 6.13440E+06 1.02240E+05  1704.0      71.000     0.19439    


end timestep


start timestep kper="72" kstp="1" mode="normal"

 #Stressperiod Save Options

 BEGIN READING OUTPUT CONTROL FOR STRESS PERIOD 72
      ALL TIME STEPS WILL BE SAVED
      ALL TIME STEPS WILL BE SAVED

 END READING OUTPUT CONTROL FOR STRESS PERIOD 72


 PROCESSING STORAGE PERIOD DATA
 END PROCESSING STORAGE PERIOD DATA


 STRESS PERIOD 72 IS TRANSIENT


 REUSING DRNS FROM LAST STRESS PERIOD

 REUSING RIVS FROM LAST STRESS PERIOD

 REUSING RIVS FROM LAST STRESS PERIOD

 REUSING RCHS FROM LAST STRESS PERIOD
 UBDSV06 SAVING              DRN IN MODEL GWF_1            PACKAGE GWF_1           CONNECTED TO MODEL GWF_1            PACKAGE DRN_SYS1         ON UNIT   1018 AT TIME STEP      1, STRESS PERIOD     72
 UBDSV06 SAVING              RIV IN MODEL GWF_1            PACKAGE GWF_1           CONNECTED TO MODEL GWF_1            PACKAGE RIV_SYS1         ON UNIT   1018 AT TIME STEP      1, STRESS PERIOD     72
 UBDSV06 SAVING              RIV IN MODEL GWF_1            PACKAGE GWF_1           CONNECTED TO MODEL GWF_1            PACKAGE RIV_SYS2         ON UNIT   1018 AT TIME STEP      1, STRESS PERIOD     72

 HEAD WILL BE SAVED ON UNIT 1017 AT END OF TIME STEP    1, STRESS PERIOD   72


  VOLUME BUDGET FOR ENTIRE MODEL AT END OF TIME STEP    1, STRESS PERIOD  72
  ---------------------------------------------------------------------------------------------------

     CUMULATIVE VOLUME      L**3       RATES FOR THIS TIME STEP      L**3/T          PACKAGE NAME    
     ------------------                 ------------------------                     ----------------

           IN:                                      IN:
           ---                                      ---
              STO-SS =      223646.6904                STO-SS =         209.4007     STORAGE                          
                 DRN =           0.0000                   DRN =           0.0000     DRN_SYS1                         
                 RIV =       51727.2195                   RIV =        1209.6827     RIV_SYS1                         
                 RIV =           0.0000                   RIV =           0.0000     RIV_SYS2                         
                 RCH =           0.0000                   RCH =           0.0000     RCH_MSW                          

            TOTAL IN =      275373.9098              TOTAL IN =        1419.0834

          OUT:                                     OUT:
          ----                                     ----
              STO-SS =           0.0000                STO-SS =           0.0000     STORAGE                          
                 DRN =        6049.6453                   DRN =          15.9680     DRN_SYS1                         
                 RIV =      252897.2654                   RIV =        1349.4322     RIV_SYS1                         
                 RIV =       16427.1269                   RIV =          53.6842     RIV_SYS2                         
                 RCH =           0.0000                   RCH =           0.0000     RCH_MSW                          

           TOTAL OUT =      275374.0376             TOTAL OUT =        1419.0843

            IN - OUT =          -0.1278              IN - OUT =      -9.6290E-04

 PERCENT DISCREPANCY =          -0.00     PERCENT DISCREPANCY =          -0.00




         TIME SUMMARY AT END OF TIME STEP    1 IN STRESS PERIOD   72
                    SECONDS     MINUTES      HOURS       DAYS        YEARS
                    -----------------------------------------------------------
   TIME STEP LENGTH  86400.      1440.0      24.000      1.0000     2.73785E-03
 STRESS PERIOD TIME  86400.      1440.0      24.000      1.0000     2.73785E-03
         TOTAL TIME 6.22080E+06 1.03680E+05  1728.0      72.000     0.19713    


end timestep


start timestep kper="73" kstp="1" mode="normal"

 #Stressperiod Save Options

 BEGIN READING OUTPUT CONTROL FOR STRESS PERIOD 73
      ALL TIME STEPS WILL BE SAVED
      ALL TIME STEPS WILL BE SAVED

 END READING OUTPUT CONTROL FOR STRESS PERIOD 73


 PROCESSING STORAGE PERIOD DATA
 END PROCESSING STORAGE PERIOD DATA


 STRESS PERIOD 73 IS TRANSIENT


 REUSING DRNS FROM LAST STRESS PERIOD

 REUSING RIVS FROM LAST STRESS PERIOD

 REUSING RIVS FROM LAST STRESS PERIOD

 REUSING RCHS FROM LAST STRESS PERIOD
 UBDSV06 SAVING              DRN IN MODEL GWF_1            PACKAGE GWF_1           CONNECTED TO MODEL GWF_1            PACKAGE DRN_SYS1         ON UNIT   1018 AT TIME STEP      1, STRESS PERIOD     73
 UBDSV06 SAVING              RIV IN MODEL GWF_1            PACKAGE GWF_1           CONNECTED TO MODEL GWF_1            PACKAGE RIV_SYS1         ON UNIT   1018 AT TIME STEP      1, STRESS PERIOD     73
 UBDSV06 SAVING              RIV IN MODEL GWF_1            PACKAGE GWF_1           CONNECTED TO MODEL GWF_1            PACKAGE RIV_SYS2         ON UNIT   1018 AT TIME STEP      1, STRESS PERIOD     73

 HEAD WILL BE SAVED ON UNIT 1017 AT END OF TIME STEP    1, STRESS PERIOD   73


  VOLUME BUDGET FOR ENTIRE MODEL AT END OF TIME STEP    1, STRESS PERIOD  73
  ---------------------------------------------------------------------------------------------------

     CUMULATIVE VOLUME      L**3       RATES FOR THIS TIME STEP      L**3/T          PACKAGE NAME    
     ------------------                 ------------------------                     ----------------

           IN:                                      IN:
           ---                                      ---
              STO-SS =      223845.1223                STO-SS =         198.4320     STORAGE                          
                 DRN =           0.0000                   DRN =           0.0000     DRN_SYS1                         
                 RIV =       52940.3687                   RIV =        1213.1492     RIV_SYS1                         
                 RIV =           0.0000                   RIV =           0.0000     RIV_SYS2                         
                 RCH =           0.0000                   RCH =           0.0000     RCH_MSW                          

            TOTAL IN =      276785.4910              TOTAL IN =        1411.5812

          OUT:                                     OUT:
          ----                                     ----
              STO-SS =           0.0000                STO-SS =           0.0000     STORAGE                          
                 DRN =        6065.2697                   DRN =          15.6244     DRN_SYS1                         
                 RIV =      254240.2856                   RIV =        1343.0202     RIV_SYS1                         
                 RIV =       16480.0644                   RIV =          52.9375     RIV_SYS2                         
                 RCH =           0.0000                   RCH =           0.0000     RCH_MSW                          

           TOTAL OUT =      276785.6197             TOTAL OUT =        1411.5821

            IN - OUT =          -0.1287              IN - OUT =      -9.1136E-04

 PERCENT DISCREPANCY =          -0.00     PERCENT DISCREPANCY =          -0.00




         TIME SUMMARY AT END OF TIME STEP    1 IN STRESS PERIOD   73
                    SECONDS     MINUTES      HOURS       DAYS        YEARS
                    -----------------------------------------------------------
   TIME STEP LENGTH  86400.      1440.0      24.000      1.0000     2.73785E-03
 STRESS PERIOD TIME  86400.      1440.0      24.000      1.0000     2.73785E-03
         TOTAL TIME 6.30720E+06 1.05120E+05  1752.0      73.000     0.19986    


end timestep


start timestep kper="74" kstp="1" mode="normal"

 #Stressperiod Save Options

 BEGIN READING OUTPUT CONTROL FOR STRESS PERIOD 74
      ALL TIME STEPS WILL BE SAVED
      ALL TIME STEPS WILL BE SAVED

 END READING OUTPUT CONTROL FOR STRESS PERIOD 74


 PROCESSING STORAGE PERIOD DATA
 END PROCESSING STORAGE PERIOD DATA


 STRESS PERIOD 74 IS TRANSIENT


 REUSING DRNS FROM LAST STRESS PERIOD

 REUSING RIVS FROM LAST STRESS PERIOD

 REUSING RIVS FROM LAST STRESS PERIOD

 REUSING RCHS FROM LAST STRESS PERIOD
 UBDSV06 SAVING              DRN IN MODEL GWF_1            PACKAGE GWF_1           CONNECTED TO MODEL GWF_1            PACKAGE DRN_SYS1         ON UNIT   1018 AT TIME STEP      1, STRESS PERIOD     74
 UBDSV06 SAVING              RIV IN MODEL GWF_1            PACKAGE GWF_1           CONNECTED TO MODEL GWF_1            PACKAGE RIV_SYS1         ON UNIT   1018 AT TIME STEP      1, STRESS PERIOD     74
 UBDSV06 SAVING              RIV IN MODEL GWF_1            PACKAGE GWF_1           CONNECTED TO MODEL GWF_1            PACKAGE RIV_SYS2         ON UNIT   1018 AT TIME STEP      1, STRESS PERIOD     74

 HEAD WILL BE SAVED ON UNIT 1017 AT END OF TIME STEP    1, STRESS PERIOD   74


  VOLUME BUDGET FOR ENTIRE MODEL AT END OF TIME STEP    1, STRESS PERIOD  74
  ---------------------------------------------------------------------------------------------------

     CUMULATIVE VOLUME      L**3       RATES FOR THIS TIME STEP      L**3/T          PACKAGE NAME    
     ------------------                 ------------------------                     ----------------

           IN:                                      IN:
           ---                                      ---
              STO-SS =      224033.1609                STO-SS =         188.0386     STORAGE                          
                 DRN =           0.0000                   DRN =           0.0000     DRN_SYS1                         
                 RIV =       54156.8024                   RIV =        1216.4337     RIV_SYS1                         
                 RIV =           0.0000                   RIV =           0.0000     RIV_SYS2                         
                 RCH =           0.0000                   RCH =           0.0000     RCH_MSW                          

            TOTAL IN =      278189.9633              TOTAL IN =        1404.4723

          OUT:                                     OUT:
          ----                                     ----
              STO-SS =           0.0000                STO-SS =           0.0000     STORAGE                          
                 DRN =        6080.5682                   DRN =          15.2985     DRN_SYS1                         
                 RIV =      255577.2295                   RIV =        1336.9439     RIV_SYS1                         
                 RIV =       16532.2952                   RIV =          52.2307     RIV_SYS2                         
                 RCH =           0.0000                   RCH =           0.0000     RCH_MSW                          

           TOTAL OUT =      278190.0928             TOTAL OUT =        1404.4731

            IN - OUT =          -0.1296              IN - OUT =      -8.6259E-04

 PERCENT DISCREPANCY =          -0.00     PERCENT DISCREPANCY =          -0.00




         TIME SUMMARY AT END OF TIME STEP    1 IN STRESS PERIOD   74
                    SECONDS     MINUTES      HOURS       DAYS        YEARS
                    -----------------------------------------------------------
   TIME STEP LENGTH  86400.      1440.0      24.000      1.0000     2.73785E-03
 STRESS PERIOD TIME  86400.      1440.0      24.000      1.0000     2.73785E-03
         TOTAL TIME 6.39360E+06 1.06560E+05  1776.0      74.000     0.20260    


end timestep


start timestep kper="75" kstp="1" mode="normal"

 #Stressperiod Save Options

 BEGIN READING OUTPUT CONTROL FOR STRESS PERIOD 75
      ALL TIME STEPS WILL BE SAVED
      ALL TIME STEPS WILL BE SAVED

 END READING OUTPUT CONTROL FOR STRESS PERIOD 75


 PROCESSING STORAGE PERIOD DATA
 END PROCESSING STORAGE PERIOD DATA


 STRESS PERIOD 75 IS TRANSIENT


 REUSING DRNS FROM LAST STRESS PERIOD

 REUSING RIVS FROM LAST STRESS PERIOD

 REUSING RIVS FROM LAST STRESS PERIOD

 REUSING RCHS FROM LAST STRESS PERIOD
 UBDSV06 SAVING              DRN IN MODEL GWF_1            PACKAGE GWF_1           CONNECTED TO MODEL GWF_1            PACKAGE DRN_SYS1         ON UNIT   1018 AT TIME STEP      1, STRESS PERIOD     75
 UBDSV06 SAVING              RIV IN MODEL GWF_1            PACKAGE GWF_1           CONNECTED TO MODEL GWF_1            PACKAGE RIV_SYS1         ON UNIT   1018 AT TIME STEP      1, STRESS PERIOD     75
 UBDSV06 SAVING              RIV IN MODEL GWF_1            PACKAGE GWF_1           CONNECTED TO MODEL GWF_1            PACKAGE RIV_SYS2         ON UNIT   1018 AT TIME STEP      1, STRESS PERIOD     75

 HEAD WILL BE SAVED ON UNIT 1017 AT END OF TIME STEP    1, STRESS PERIOD   75


  VOLUME BUDGET FOR ENTIRE MODEL AT END OF TIME STEP    1, STRESS PERIOD  75
  ---------------------------------------------------------------------------------------------------

     CUMULATIVE VOLUME      L**3       RATES FOR THIS TIME STEP      L**3/T          PACKAGE NAME    
     ------------------                 ------------------------                     ----------------

           IN:                                      IN:
           ---                                      ---
              STO-SS =      224211.3512                STO-SS =         178.1903     STORAGE                          
                 DRN =           0.0000                   DRN =           0.0000     DRN_SYS1                         
                 RIV =       55376.3480                   RIV =        1219.5457     RIV_SYS1                         
                 RIV =           0.0000                   RIV =           0.0000     RIV_SYS2                         
                 RCH =           0.0000                   RCH =           0.0000     RCH_MSW                          

            TOTAL IN =      279587.6993              TOTAL IN =        1397.7360

          OUT:                                     OUT:
          ----                                     ----
              STO-SS =           0.0000                STO-SS =           0.0000     STORAGE                          
                 DRN =        6095.5577                   DRN =          14.9895     DRN_SYS1                         
                 RIV =      256908.4151                   RIV =        1331.1856     RIV_SYS1                         
                 RIV =       16583.8569                   RIV =          51.5617     RIV_SYS2                         
                 RCH =           0.0000                   RCH =           0.0000     RCH_MSW                          

           TOTAL OUT =      279587.8297             TOTAL OUT =        1397.7368

            IN - OUT =          -0.1304              IN - OUT =      -8.1644E-04

 PERCENT DISCREPANCY =          -0.00     PERCENT DISCREPANCY =          -0.00




         TIME SUMMARY AT END OF TIME STEP    1 IN STRESS PERIOD   75
                    SECONDS     MINUTES      HOURS       DAYS        YEARS
                    -----------------------------------------------------------
   TIME STEP LENGTH  86400.      1440.0      24.000      1.0000     2.73785E-03
 STRESS PERIOD TIME  86400.      1440.0      24.000      1.0000     2.73785E-03
         TOTAL TIME 6.48000E+06 1.08000E+05  1800.0      75.000     0.20534    


end timestep


start timestep kper="76" kstp="1" mode="normal"

 #Stressperiod Save Options

 BEGIN READING OUTPUT CONTROL FOR STRESS PERIOD 76
      ALL TIME STEPS WILL BE SAVED
      ALL TIME STEPS WILL BE SAVED

 END READING OUTPUT CONTROL FOR STRESS PERIOD 76


 PROCESSING STORAGE PERIOD DATA
 END PROCESSING STORAGE PERIOD DATA


 STRESS PERIOD 76 IS TRANSIENT


 REUSING DRNS FROM LAST STRESS PERIOD

 REUSING RIVS FROM LAST STRESS PERIOD

 REUSING RIVS FROM LAST STRESS PERIOD

 REUSING RCHS FROM LAST STRESS PERIOD
 UBDSV06 SAVING              DRN IN MODEL GWF_1            PACKAGE GWF_1           CONNECTED TO MODEL GWF_1            PACKAGE DRN_SYS1         ON UNIT   1018 AT TIME STEP      1, STRESS PERIOD     76
 UBDSV06 SAVING              RIV IN MODEL GWF_1            PACKAGE GWF_1           CONNECTED TO MODEL GWF_1            PACKAGE RIV_SYS1         ON UNIT   1018 AT TIME STEP      1, STRESS PERIOD     76
 UBDSV06 SAVING              RIV IN MODEL GWF_1            PACKAGE GWF_1           CONNECTED TO MODEL GWF_1            PACKAGE RIV_SYS2         ON UNIT   1018 AT TIME STEP      1, STRESS PERIOD     76

 HEAD WILL BE SAVED ON UNIT 1017 AT END OF TIME STEP    1, STRESS PERIOD   76


  VOLUME BUDGET FOR ENTIRE MODEL AT END OF TIME STEP    1, STRESS PERIOD  76
  ---------------------------------------------------------------------------------------------------

     CUMULATIVE VOLUME      L**3       RATES FOR THIS TIME STEP      L**3/T          PACKAGE NAME    
     ------------------                 ------------------------                     ----------------

           IN:                                      IN:
           ---                                      ---
              STO-SS =      224380.2098                STO-SS =         168.8585     STORAGE                          
                 DRN =           0.0000                   DRN =           0.0000     DRN_SYS1                         
                 RIV =       56598.8424                   RIV =        1222.4943     RIV_SYS1                         
                 RIV =           0.0000                   RIV =           0.0000     RIV_SYS2                         
                 RCH =           0.0000                   RCH =           0.0000     RCH_MSW                          

            TOTAL IN =      280979.0521              TOTAL IN =        1391.3528

          OUT:                                     OUT:
          ----                                     ----
              STO-SS =           0.0000                STO-SS =           0.0000     STORAGE                          
                 DRN =        6110.2540                   DRN =          14.6963     DRN_SYS1                         
                 RIV =      258234.1439                   RIV =        1325.7288     RIV_SYS1                         
                 RIV =       16634.7853                   RIV =          50.9284     RIV_SYS2                         
                 RCH =           0.0000                   RCH =           0.0000     RCH_MSW                          

           TOTAL OUT =      280979.1833             TOTAL OUT =        1391.3536

            IN - OUT =          -0.1312              IN - OUT =      -7.7277E-04

 PERCENT DISCREPANCY =          -0.00     PERCENT DISCREPANCY =          -0.00




         TIME SUMMARY AT END OF TIME STEP    1 IN STRESS PERIOD   76
                    SECONDS     MINUTES      HOURS       DAYS        YEARS
                    -----------------------------------------------------------
   TIME STEP LENGTH  86400.      1440.0      24.000      1.0000     2.73785E-03
 STRESS PERIOD TIME  86400.      1440.0      24.000      1.0000     2.73785E-03
         TOTAL TIME 6.56640E+06 1.09440E+05  1824.0      76.000     0.20808    


end timestep


start timestep kper="77" kstp="1" mode="normal"

 #Stressperiod Save Options

 BEGIN READING OUTPUT CONTROL FOR STRESS PERIOD 77
      ALL TIME STEPS WILL BE SAVED
      ALL TIME STEPS WILL BE SAVED

 END READING OUTPUT CONTROL FOR STRESS PERIOD 77


 PROCESSING STORAGE PERIOD DATA
 END PROCESSING STORAGE PERIOD DATA


 STRESS PERIOD 77 IS TRANSIENT


 REUSING DRNS FROM LAST STRESS PERIOD

 REUSING RIVS FROM LAST STRESS PERIOD

 REUSING RIVS FROM LAST STRESS PERIOD

 REUSING RCHS FROM LAST STRESS PERIOD
 UBDSV06 SAVING              DRN IN MODEL GWF_1            PACKAGE GWF_1           CONNECTED TO MODEL GWF_1            PACKAGE DRN_SYS1         ON UNIT   1018 AT TIME STEP      1, STRESS PERIOD     77
 UBDSV06 SAVING              RIV IN MODEL GWF_1            PACKAGE GWF_1           CONNECTED TO MODEL GWF_1            PACKAGE RIV_SYS1         ON UNIT   1018 AT TIME STEP      1, STRESS PERIOD     77
 UBDSV06 SAVING              RIV IN MODEL GWF_1            PACKAGE GWF_1           CONNECTED TO MODEL GWF_1            PACKAGE RIV_SYS2         ON UNIT   1018 AT TIME STEP      1, STRESS PERIOD     77

 HEAD WILL BE SAVED ON UNIT 1017 AT END OF TIME STEP    1, STRESS PERIOD   77


  VOLUME BUDGET FOR ENTIRE MODEL AT END OF TIME STEP    1, STRESS PERIOD  77
  ---------------------------------------------------------------------------------------------------

     CUMULATIVE VOLUME      L**3       RATES FOR THIS TIME STEP      L**3/T          PACKAGE NAME    
     ------------------                 ------------------------                     ----------------

           IN:                                      IN:
           ---                                      ---
              STO-SS =      224540.2258                STO-SS =         160.0160     STORAGE                          
                 DRN =           0.0000                   DRN =           0.0000     DRN_SYS1                         
                 RIV =       57824.1306                   RIV =        1225.2882     RIV_SYS1                         
                 RIV =           0.0000                   RIV =           0.0000     RIV_SYS2                         
                 RCH =           0.0000                   RCH =           0.0000     RCH_MSW                          

            TOTAL IN =      282364.3563              TOTAL IN =        1385.3042

          OUT:                                     OUT:
          ----                                     ----
              STO-SS =           0.0000                STO-SS =           0.0000     STORAGE                          
                 DRN =        6124.6724                   DRN =          14.4183     DRN_SYS1                         
                 RIV =      259554.7017                   RIV =        1320.5577     RIV_SYS1                         
                 RIV =       16685.1142                   RIV =          50.3289     RIV_SYS2                         
                 RCH =           0.0000                   RCH =           0.0000     RCH_MSW                          

           TOTAL OUT =      282364.4882             TOTAL OUT =        1385.3049

            IN - OUT =          -0.1319              IN - OUT =      -7.3145E-04

 PERCENT DISCREPANCY =          -0.00     PERCENT DISCREPANCY =          -0.00




         TIME SUMMARY AT END OF TIME STEP    1 IN STRESS PERIOD   77
                    SECONDS     MINUTES      HOURS       DAYS        YEARS
                    -----------------------------------------------------------
   TIME STEP LENGTH  86400.      1440.0      24.000      1.0000     2.73785E-03
 STRESS PERIOD TIME  86400.      1440.0      24.000      1.0000     2.73785E-03
         TOTAL TIME 6.65280E+06 1.10880E+05  1848.0      77.000     0.21081    


end timestep


start timestep kper="78" kstp="1" mode="normal"

 #Stressperiod Save Options

 BEGIN READING OUTPUT CONTROL FOR STRESS PERIOD 78
      ALL TIME STEPS WILL BE SAVED
      ALL TIME STEPS WILL BE SAVED

 END READING OUTPUT CONTROL FOR STRESS PERIOD 78


 PROCESSING STORAGE PERIOD DATA
 END PROCESSING STORAGE PERIOD DATA


 STRESS PERIOD 78 IS TRANSIENT


 REUSING DRNS FROM LAST STRESS PERIOD

 REUSING RIVS FROM LAST STRESS PERIOD

 REUSING RIVS FROM LAST STRESS PERIOD

 REUSING RCHS FROM LAST STRESS PERIOD
 UBDSV06 SAVING              DRN IN MODEL GWF_1            PACKAGE GWF_1           CONNECTED TO MODEL GWF_1            PACKAGE DRN_SYS1         ON UNIT   1018 AT TIME STEP      1, STRESS PERIOD     78
 UBDSV06 SAVING              RIV IN MODEL GWF_1            PACKAGE GWF_1           CONNECTED TO MODEL GWF_1            PACKAGE RIV_SYS1         ON UNIT   1018 AT TIME STEP      1, STRESS PERIOD     78
 UBDSV06 SAVING              RIV IN MODEL GWF_1            PACKAGE GWF_1           CONNECTED TO MODEL GWF_1            PACKAGE RIV_SYS2         ON UNIT   1018 AT TIME STEP      1, STRESS PERIOD     78

 HEAD WILL BE SAVED ON UNIT 1017 AT END OF TIME STEP    1, STRESS PERIOD   78


  VOLUME BUDGET FOR ENTIRE MODEL AT END OF TIME STEP    1, STRESS PERIOD  78
  ---------------------------------------------------------------------------------------------------

     CUMULATIVE VOLUME      L**3       RATES FOR THIS TIME STEP      L**3/T          PACKAGE NAME    
     ------------------                 ------------------------                     ----------------

           IN:                                      IN:
           ---                                      ---
              STO-SS =      224691.8629                STO-SS =         151.6371     STORAGE                          
                 DRN =           0.0000                   DRN =           0.0000     DRN_SYS1                         
                 RIV =       59052.0661                   RIV =        1227.9355     RIV_SYS1                         
                 RIV =           0.0000                   RIV =           0.0000     RIV_SYS2                         
                 RCH =           0.0000                   RCH =           0.0000     RCH_MSW                          

            TOTAL IN =      283743.9289              TOTAL IN =        1379.5726

          OUT:                                     OUT:
          ----                                     ----
              STO-SS =           0.0000                STO-SS =           0.0000     STORAGE                          
                 DRN =        6138.8270                   DRN =          14.1546     DRN_SYS1                         
                 RIV =      260870.3589                   RIV =        1315.6572     RIV_SYS1                         
                 RIV =       16734.8756                   RIV =          49.7614     RIV_SYS2                         
                 RCH =           0.0000                   RCH =           0.0000     RCH_MSW                          

           TOTAL OUT =      283744.0615             TOTAL OUT =        1379.5733

            IN - OUT =          -0.1326              IN - OUT =      -6.9234E-04

 PERCENT DISCREPANCY =          -0.00     PERCENT DISCREPANCY =          -0.00




         TIME SUMMARY AT END OF TIME STEP    1 IN STRESS PERIOD   78
                    SECONDS     MINUTES      HOURS       DAYS        YEARS
                    -----------------------------------------------------------
   TIME STEP LENGTH  86400.      1440.0      24.000      1.0000     2.73785E-03
 STRESS PERIOD TIME  86400.      1440.0      24.000      1.0000     2.73785E-03
         TOTAL TIME 6.73920E+06 1.12320E+05  1872.0      78.000     0.21355    


end timestep


start timestep kper="79" kstp="1" mode="normal"

 #Stressperiod Save Options

 BEGIN READING OUTPUT CONTROL FOR STRESS PERIOD 79
      ALL TIME STEPS WILL BE SAVED
      ALL TIME STEPS WILL BE SAVED

 END READING OUTPUT CONTROL FOR STRESS PERIOD 79


 PROCESSING STORAGE PERIOD DATA
 END PROCESSING STORAGE PERIOD DATA


 STRESS PERIOD 79 IS TRANSIENT


 REUSING DRNS FROM LAST STRESS PERIOD

 REUSING RIVS FROM LAST STRESS PERIOD

 REUSING RIVS FROM LAST STRESS PERIOD

 REUSING RCHS FROM LAST STRESS PERIOD
 UBDSV06 SAVING              DRN IN MODEL GWF_1            PACKAGE GWF_1           CONNECTED TO MODEL GWF_1            PACKAGE DRN_SYS1         ON UNIT   1018 AT TIME STEP      1, STRESS PERIOD     79
 UBDSV06 SAVING              RIV IN MODEL GWF_1            PACKAGE GWF_1           CONNECTED TO MODEL GWF_1            PACKAGE RIV_SYS1         ON UNIT   1018 AT TIME STEP      1, STRESS PERIOD     79
 UBDSV06 SAVING              RIV IN MODEL GWF_1            PACKAGE GWF_1           CONNECTED TO MODEL GWF_1            PACKAGE RIV_SYS2         ON UNIT   1018 AT TIME STEP      1, STRESS PERIOD     79

 HEAD WILL BE SAVED ON UNIT 1017 AT END OF TIME STEP    1, STRESS PERIOD   79


  VOLUME BUDGET FOR ENTIRE MODEL AT END OF TIME STEP    1, STRESS PERIOD  79
  ---------------------------------------------------------------------------------------------------

     CUMULATIVE VOLUME      L**3       RATES FOR THIS TIME STEP      L**3/T          PACKAGE NAME    
     ------------------                 ------------------------                     ----------------

           IN:                                      IN:
           ---                                      ---
              STO-SS =      224835.5603                STO-SS =         143.6974     STORAGE                          
                 DRN =           0.0000                   DRN =           0.0000     DRN_SYS1                         
                 RIV =       60282.5100                   RIV =        1230.4439     RIV_SYS1                         
                 RIV =           0.0000                   RIV =           0.0000     RIV_SYS2                         
                 RCH =           0.0000                   RCH =           0.0000     RCH_MSW                          

            TOTAL IN =      285118.0702              TOTAL IN =        1374.1413

          OUT:                                     OUT:
          ----                                     ----
              STO-SS =           0.0000                STO-SS =           0.0000     STORAGE                          
                 DRN =        6152.7316                   DRN =          13.9046     DRN_SYS1                         
                 RIV =      262181.3722                   RIV =        1311.0133     RIV_SYS1                         
                 RIV =       16784.0998                   RIV =          49.2241     RIV_SYS2                         
                 RCH =           0.0000                   RCH =           0.0000     RCH_MSW                          

           TOTAL OUT =      285118.2035             TOTAL OUT =        1374.1420

            IN - OUT =          -0.1332              IN - OUT =      -6.5534E-04

 PERCENT DISCREPANCY =          -0.00     PERCENT DISCREPANCY =          -0.00




         TIME SUMMARY AT END OF TIME STEP    1 IN STRESS PERIOD   79
                    SECONDS     MINUTES      HOURS       DAYS        YEARS
                    -----------------------------------------------------------
   TIME STEP LENGTH  86400.      1440.0      24.000      1.0000     2.73785E-03
 STRESS PERIOD TIME  86400.      1440.0      24.000      1.0000     2.73785E-03
         TOTAL TIME 6.82560E+06 1.13760E+05  1896.0      79.000     0.21629    


end timestep


start timestep kper="80" kstp="1" mode="normal"

 #Stressperiod Save Options

 BEGIN READING OUTPUT CONTROL FOR STRESS PERIOD 80
      ALL TIME STEPS WILL BE SAVED
      ALL TIME STEPS WILL BE SAVED

 END READING OUTPUT CONTROL FOR STRESS PERIOD 80


 PROCESSING STORAGE PERIOD DATA
 END PROCESSING STORAGE PERIOD DATA


 STRESS PERIOD 80 IS TRANSIENT


 REUSING DRNS FROM LAST STRESS PERIOD

 REUSING RIVS FROM LAST STRESS PERIOD

 REUSING RIVS FROM LAST STRESS PERIOD

 REUSING RCHS FROM LAST STRESS PERIOD
 UBDSV06 SAVING              DRN IN MODEL GWF_1            PACKAGE GWF_1           CONNECTED TO MODEL GWF_1            PACKAGE DRN_SYS1         ON UNIT   1018 AT TIME STEP      1, STRESS PERIOD     80
 UBDSV06 SAVING              RIV IN MODEL GWF_1            PACKAGE GWF_1           CONNECTED TO MODEL GWF_1            PACKAGE RIV_SYS1         ON UNIT   1018 AT TIME STEP      1, STRESS PERIOD     80
 UBDSV06 SAVING              RIV IN MODEL GWF_1            PACKAGE GWF_1           CONNECTED TO MODEL GWF_1            PACKAGE RIV_SYS2         ON UNIT   1018 AT TIME STEP      1, STRESS PERIOD     80

 HEAD WILL BE SAVED ON UNIT 1017 AT END OF TIME STEP    1, STRESS PERIOD   80


  VOLUME BUDGET FOR ENTIRE MODEL AT END OF TIME STEP    1, STRESS PERIOD  80
  ---------------------------------------------------------------------------------------------------

     CUMULATIVE VOLUME      L**3       RATES FOR THIS TIME STEP      L**3/T          PACKAGE NAME    
     ------------------                 ------------------------                     ----------------

           IN:                                      IN:
           ---                                      ---
              STO-SS =      224971.7341                STO-SS =         136.1739     STORAGE                          
                 DRN =           0.0000                   DRN =           0.0000     DRN_SYS1                         
                 RIV =       61515.3308                   RIV =        1232.8208     RIV_SYS1                         
                 RIV =           0.0000                   RIV =           0.0000     RIV_SYS2                         
                 RCH =           0.0000                   RCH =           0.0000     RCH_MSW                          

            TOTAL IN =      286487.0649              TOTAL IN =        1368.9947

          OUT:                                     OUT:
          ----                                     ----
              STO-SS =           0.0000                STO-SS =           0.0000     STORAGE                          
                 DRN =        6166.3989                   DRN =          13.6674     DRN_SYS1                         
                 RIV =      263487.9846                   RIV =        1306.6124     RIV_SYS1                         
                 RIV =       16832.8153                   RIV =          48.7155     RIV_SYS2                         
                 RCH =           0.0000                   RCH =           0.0000     RCH_MSW                          

           TOTAL OUT =      286487.1988             TOTAL OUT =        1368.9953

            IN - OUT =          -0.1339              IN - OUT =      -6.2033E-04

 PERCENT DISCREPANCY =          -0.00     PERCENT DISCREPANCY =          -0.00




         TIME SUMMARY AT END OF TIME STEP    1 IN STRESS PERIOD   80
                    SECONDS     MINUTES      HOURS       DAYS        YEARS
                    -----------------------------------------------------------
   TIME STEP LENGTH  86400.      1440.0      24.000      1.0000     2.73785E-03
 STRESS PERIOD TIME  86400.      1440.0      24.000      1.0000     2.73785E-03
         TOTAL TIME 6.91200E+06 1.15200E+05  1920.0      80.000     0.21903    


end timestep


start timestep kper="81" kstp="1" mode="normal"

 #Stressperiod Save Options

 BEGIN READING OUTPUT CONTROL FOR STRESS PERIOD 81
      ALL TIME STEPS WILL BE SAVED
      ALL TIME STEPS WILL BE SAVED

 END READING OUTPUT CONTROL FOR STRESS PERIOD 81


 PROCESSING STORAGE PERIOD DATA
 END PROCESSING STORAGE PERIOD DATA


 STRESS PERIOD 81 IS TRANSIENT


 REUSING DRNS FROM LAST STRESS PERIOD

 REUSING RIVS FROM LAST STRESS PERIOD

 REUSING RIVS FROM LAST STRESS PERIOD

 REUSING RCHS FROM LAST STRESS PERIOD
 UBDSV06 SAVING              DRN IN MODEL GWF_1            PACKAGE GWF_1           CONNECTED TO MODEL GWF_1            PACKAGE DRN_SYS1         ON UNIT   1018 AT TIME STEP      1, STRESS PERIOD     81
 UBDSV06 SAVING              RIV IN MODEL GWF_1            PACKAGE GWF_1           CONNECTED TO MODEL GWF_1            PACKAGE RIV_SYS1         ON UNIT   1018 AT TIME STEP      1, STRESS PERIOD     81
 UBDSV06 SAVING              RIV IN MODEL GWF_1            PACKAGE GWF_1           CONNECTED TO MODEL GWF_1            PACKAGE RIV_SYS2         ON UNIT   1018 AT TIME STEP      1, STRESS PERIOD     81

 HEAD WILL BE SAVED ON UNIT 1017 AT END OF TIME STEP    1, STRESS PERIOD   81


  VOLUME BUDGET FOR ENTIRE MODEL AT END OF TIME STEP    1, STRESS PERIOD  81
  ---------------------------------------------------------------------------------------------------

     CUMULATIVE VOLUME      L**3       RATES FOR THIS TIME STEP      L**3/T          PACKAGE NAME    
     ------------------                 ------------------------                     ----------------

           IN:                                      IN:
           ---                                      ---
              STO-SS =      225100.7788                STO-SS =         129.0447     STORAGE                          
                 DRN =           0.0000                   DRN =           0.0000     DRN_SYS1                         
                 RIV =       62750.4038                   RIV =        1235.0730     RIV_SYS1                         
                 RIV =           0.0000                   RIV =           0.0000     RIV_SYS2                         
                 RCH =           0.0000                   RCH =           0.0000     RCH_MSW                          

            TOTAL IN =      287851.1826              TOTAL IN =        1364.1177

          OUT:                                     OUT:
          ----                                     ----
              STO-SS =           0.0000                STO-SS =           0.0000     STORAGE                          
                 DRN =        6179.8414                   DRN =          13.4424     DRN_SYS1                         
                 RIV =      264790.4263                   RIV =        1302.4418     RIV_SYS1                         
                 RIV =       16881.0493                   RIV =          48.2340     RIV_SYS2                         
                 RCH =           0.0000                   RCH =           0.0000     RCH_MSW                          

           TOTAL OUT =      287851.3170             TOTAL OUT =        1364.1183

            IN - OUT =          -0.1345              IN - OUT =      -5.8719E-04

 PERCENT DISCREPANCY =          -0.00     PERCENT DISCREPANCY =          -0.00




         TIME SUMMARY AT END OF TIME STEP    1 IN STRESS PERIOD   81
                    SECONDS     MINUTES      HOURS       DAYS        YEARS
                    -----------------------------------------------------------
   TIME STEP LENGTH  86400.      1440.0      24.000      1.0000     2.73785E-03
 STRESS PERIOD TIME  86400.      1440.0      24.000      1.0000     2.73785E-03
         TOTAL TIME 6.99840E+06 1.16640E+05  1944.0      81.000     0.22177    


end timestep


start timestep kper="82" kstp="1" mode="normal"

 #Stressperiod Save Options

 BEGIN READING OUTPUT CONTROL FOR STRESS PERIOD 82
      ALL TIME STEPS WILL BE SAVED
      ALL TIME STEPS WILL BE SAVED

 END READING OUTPUT CONTROL FOR STRESS PERIOD 82


 PROCESSING STORAGE PERIOD DATA
 END PROCESSING STORAGE PERIOD DATA


 STRESS PERIOD 82 IS TRANSIENT


 REUSING DRNS FROM LAST STRESS PERIOD

 REUSING RIVS FROM LAST STRESS PERIOD

 REUSING RIVS FROM LAST STRESS PERIOD

 REUSING RCHS FROM LAST STRESS PERIOD
 UBDSV06 SAVING              DRN IN MODEL GWF_1            PACKAGE GWF_1           CONNECTED TO MODEL GWF_1            PACKAGE DRN_SYS1         ON UNIT   1018 AT TIME STEP      1, STRESS PERIOD     82
 UBDSV06 SAVING              RIV IN MODEL GWF_1            PACKAGE GWF_1           CONNECTED TO MODEL GWF_1            PACKAGE RIV_SYS1         ON UNIT   1018 AT TIME STEP      1, STRESS PERIOD     82
 UBDSV06 SAVING              RIV IN MODEL GWF_1            PACKAGE GWF_1           CONNECTED TO MODEL GWF_1            PACKAGE RIV_SYS2         ON UNIT   1018 AT TIME STEP      1, STRESS PERIOD     82

 HEAD WILL BE SAVED ON UNIT 1017 AT END OF TIME STEP    1, STRESS PERIOD   82


  VOLUME BUDGET FOR ENTIRE MODEL AT END OF TIME STEP    1, STRESS PERIOD  82
  ---------------------------------------------------------------------------------------------------

     CUMULATIVE VOLUME      L**3       RATES FOR THIS TIME STEP      L**3/T          PACKAGE NAME    
     ------------------                 ------------------------                     ----------------

           IN:                                      IN:
           ---                                      ---
              STO-SS =      225223.0679                STO-SS =         122.2891     STORAGE                          
                 DRN =           0.0000                   DRN =           0.0000     DRN_SYS1                         
                 RIV =       63987.6109                   RIV =        1237.2071     RIV_SYS1                         
                 RIV =           0.0000                   RIV =           0.0000     RIV_SYS2                         
                 RCH =           0.0000                   RCH =           0.0000     RCH_MSW                          

            TOTAL IN =      289210.6788              TOTAL IN =        1359.4962

          OUT:                                     OUT:
          ----                                     ----
              STO-SS =           0.0000                STO-SS =           0.0000     STORAGE                          
                 DRN =        6193.0705                   DRN =          13.2291     DRN_SYS1                         
                 RIV =      266088.9158                   RIV =        1298.4895     RIV_SYS1                         
                 RIV =       16928.8275                   RIV =          47.7782     RIV_SYS2                         
                 RCH =           0.0000                   RCH =           0.0000     RCH_MSW                          

           TOTAL OUT =      289210.8138             TOTAL OUT =        1359.4968

            IN - OUT =          -0.1350              IN - OUT =      -5.5584E-04

 PERCENT DISCREPANCY =          -0.00     PERCENT DISCREPANCY =          -0.00




         TIME SUMMARY AT END OF TIME STEP    1 IN STRESS PERIOD   82
                    SECONDS     MINUTES      HOURS       DAYS        YEARS
                    -----------------------------------------------------------
   TIME STEP LENGTH  86400.      1440.0      24.000      1.0000     2.73785E-03
 STRESS PERIOD TIME  86400.      1440.0      24.000      1.0000     2.73785E-03
         TOTAL TIME 7.08480E+06 1.18080E+05  1968.0      82.000     0.22450    


end timestep


start timestep kper="83" kstp="1" mode="normal"

 #Stressperiod Save Options

 BEGIN READING OUTPUT CONTROL FOR STRESS PERIOD 83
      ALL TIME STEPS WILL BE SAVED
      ALL TIME STEPS WILL BE SAVED

 END READING OUTPUT CONTROL FOR STRESS PERIOD 83


 PROCESSING STORAGE PERIOD DATA
 END PROCESSING STORAGE PERIOD DATA


 STRESS PERIOD 83 IS TRANSIENT


 REUSING DRNS FROM LAST STRESS PERIOD

 REUSING RIVS FROM LAST STRESS PERIOD

 REUSING RIVS FROM LAST STRESS PERIOD

 REUSING RCHS FROM LAST STRESS PERIOD
 UBDSV06 SAVING              DRN IN MODEL GWF_1            PACKAGE GWF_1           CONNECTED TO MODEL GWF_1            PACKAGE DRN_SYS1         ON UNIT   1018 AT TIME STEP      1, STRESS PERIOD     83
 UBDSV06 SAVING              RIV IN MODEL GWF_1            PACKAGE GWF_1           CONNECTED TO MODEL GWF_1            PACKAGE RIV_SYS1         ON UNIT   1018 AT TIME STEP      1, STRESS PERIOD     83
 UBDSV06 SAVING              RIV IN MODEL GWF_1            PACKAGE GWF_1           CONNECTED TO MODEL GWF_1            PACKAGE RIV_SYS2         ON UNIT   1018 AT TIME STEP      1, STRESS PERIOD     83

 HEAD WILL BE SAVED ON UNIT 1017 AT END OF TIME STEP    1, STRESS PERIOD   83


  VOLUME BUDGET FOR ENTIRE MODEL AT END OF TIME STEP    1, STRESS PERIOD  83
  ---------------------------------------------------------------------------------------------------

     CUMULATIVE VOLUME      L**3       RATES FOR THIS TIME STEP      L**3/T          PACKAGE NAME    
     ------------------                 ------------------------                     ----------------

           IN:                                      IN:
           ---                                      ---
              STO-SS =      225338.9554                STO-SS =         115.8875     STORAGE                          
                 DRN =           0.0000                   DRN =           0.0000     DRN_SYS1                         
                 RIV =       65226.8403                   RIV =        1239.2294     RIV_SYS1                         
                 RIV =           0.0000                   RIV =           0.0000     RIV_SYS2                         
                 RCH =           0.0000                   RCH =           0.0000     RCH_MSW                          

            TOTAL IN =      290565.7957              TOTAL IN =        1355.1169

          OUT:                                     OUT:
          ----                                     ----
              STO-SS =           0.0000                STO-SS =           0.0000     STORAGE                          
                 DRN =        6206.0973                   DRN =          13.0268     DRN_SYS1                         
                 RIV =      267383.6598                   RIV =        1294.7440     RIV_SYS1                         
                 RIV =       16976.1741                   RIV =          47.3466     RIV_SYS2                         
                 RCH =           0.0000                   RCH =           0.0000     RCH_MSW                          

           TOTAL OUT =      290565.9312             TOTAL OUT =        1355.1174

            IN - OUT =          -0.1355              IN - OUT =      -5.2617E-04

 PERCENT DISCREPANCY =          -0.00     PERCENT DISCREPANCY =          -0.00




         TIME SUMMARY AT END OF TIME STEP    1 IN STRESS PERIOD   83
                    SECONDS     MINUTES      HOURS       DAYS        YEARS
                    -----------------------------------------------------------
   TIME STEP LENGTH  86400.      1440.0      24.000      1.0000     2.73785E-03
 STRESS PERIOD TIME  86400.      1440.0      24.000      1.0000     2.73785E-03
         TOTAL TIME 7.17120E+06 1.19520E+05  1992.0      83.000     0.22724    


end timestep


start timestep kper="84" kstp="1" mode="normal"

 #Stressperiod Save Options

 BEGIN READING OUTPUT CONTROL FOR STRESS PERIOD 84
      ALL TIME STEPS WILL BE SAVED
      ALL TIME STEPS WILL BE SAVED

 END READING OUTPUT CONTROL FOR STRESS PERIOD 84


 PROCESSING STORAGE PERIOD DATA
 END PROCESSING STORAGE PERIOD DATA


 STRESS PERIOD 84 IS TRANSIENT


 REUSING DRNS FROM LAST STRESS PERIOD

 REUSING RIVS FROM LAST STRESS PERIOD

 REUSING RIVS FROM LAST STRESS PERIOD

 REUSING RCHS FROM LAST STRESS PERIOD
 UBDSV06 SAVING              DRN IN MODEL GWF_1            PACKAGE GWF_1           CONNECTED TO MODEL GWF_1            PACKAGE DRN_SYS1         ON UNIT   1018 AT TIME STEP      1, STRESS PERIOD     84
 UBDSV06 SAVING              RIV IN MODEL GWF_1            PACKAGE GWF_1           CONNECTED TO MODEL GWF_1            PACKAGE RIV_SYS1         ON UNIT   1018 AT TIME STEP      1, STRESS PERIOD     84
 UBDSV06 SAVING              RIV IN MODEL GWF_1            PACKAGE GWF_1           CONNECTED TO MODEL GWF_1            PACKAGE RIV_SYS2         ON UNIT   1018 AT TIME STEP      1, STRESS PERIOD     84

 HEAD WILL BE SAVED ON UNIT 1017 AT END OF TIME STEP    1, STRESS PERIOD   84


  VOLUME BUDGET FOR ENTIRE MODEL AT END OF TIME STEP    1, STRESS PERIOD  84
  ---------------------------------------------------------------------------------------------------

     CUMULATIVE VOLUME      L**3       RATES FOR THIS TIME STEP      L**3/T          PACKAGE NAME    
     ------------------                 ------------------------                     ----------------

           IN:                                      IN:
           ---                                      ---
              STO-SS =      225448.7767                STO-SS =         109.8213     STORAGE                          
                 DRN =           0.0000                   DRN =           0.0000     DRN_SYS1                         
                 RIV =       66467.9860                   RIV =        1241.1457     RIV_SYS1                         
                 RIV =           0.0000                   RIV =           0.0000     RIV_SYS2                         
                 RCH =           0.0000                   RCH =           0.0000     RCH_MSW                          

            TOTAL IN =      291916.7627              TOTAL IN =        1350.9670

          OUT:                                     OUT:
          ----                                     ----
              STO-SS =           0.0000                STO-SS =           0.0000     STORAGE                          
                 DRN =        6218.9322                   DRN =          12.8349     DRN_SYS1                         
                 RIV =      268674.8544                   RIV =        1291.1945     RIV_SYS1                         
                 RIV =       17023.1121                   RIV =          46.9380     RIV_SYS2                         
                 RCH =           0.0000                   RCH =           0.0000     RCH_MSW                          

           TOTAL OUT =      291916.8987             TOTAL OUT =        1350.9675

            IN - OUT =          -0.1360              IN - OUT =      -4.9809E-04

 PERCENT DISCREPANCY =          -0.00     PERCENT DISCREPANCY =          -0.00




         TIME SUMMARY AT END OF TIME STEP    1 IN STRESS PERIOD   84
                    SECONDS     MINUTES      HOURS       DAYS        YEARS
                    -----------------------------------------------------------
   TIME STEP LENGTH  86400.      1440.0      24.000      1.0000     2.73785E-03
 STRESS PERIOD TIME  86400.      1440.0      24.000      1.0000     2.73785E-03
         TOTAL TIME 7.25760E+06 1.20960E+05  2016.0      84.000     0.22998    


end timestep


start timestep kper="85" kstp="1" mode="normal"

 #Stressperiod Save Options

 BEGIN READING OUTPUT CONTROL FOR STRESS PERIOD 85
      ALL TIME STEPS WILL BE SAVED
      ALL TIME STEPS WILL BE SAVED

 END READING OUTPUT CONTROL FOR STRESS PERIOD 85


 PROCESSING STORAGE PERIOD DATA
 END PROCESSING STORAGE PERIOD DATA


 STRESS PERIOD 85 IS TRANSIENT


 REUSING DRNS FROM LAST STRESS PERIOD

 REUSING RIVS FROM LAST STRESS PERIOD

 REUSING RIVS FROM LAST STRESS PERIOD

 REUSING RCHS FROM LAST STRESS PERIOD
 UBDSV06 SAVING              DRN IN MODEL GWF_1            PACKAGE GWF_1           CONNECTED TO MODEL GWF_1            PACKAGE DRN_SYS1         ON UNIT   1018 AT TIME STEP      1, STRESS PERIOD     85
 UBDSV06 SAVING              RIV IN MODEL GWF_1            PACKAGE GWF_1           CONNECTED TO MODEL GWF_1            PACKAGE RIV_SYS1         ON UNIT   1018 AT TIME STEP      1, STRESS PERIOD     85
 UBDSV06 SAVING              RIV IN MODEL GWF_1            PACKAGE GWF_1           CONNECTED TO MODEL GWF_1            PACKAGE RIV_SYS2         ON UNIT   1018 AT TIME STEP      1, STRESS PERIOD     85

 HEAD WILL BE SAVED ON UNIT 1017 AT END OF TIME STEP    1, STRESS PERIOD   85


  VOLUME BUDGET FOR ENTIRE MODEL AT END OF TIME STEP    1, STRESS PERIOD  85
  ---------------------------------------------------------------------------------------------------

     CUMULATIVE VOLUME      L**3       RATES FOR THIS TIME STEP      L**3/T          PACKAGE NAME    
     ------------------                 ------------------------                     ----------------

           IN:                                      IN:
           ---                                      ---
              STO-SS =      225552.8496                STO-SS =         104.0729     STORAGE                          
                 DRN =           0.0000                   DRN =           0.0000     DRN_SYS1                         
                 RIV =       67710.9475                   RIV =        1242.9615     RIV_SYS1                         
                 RIV =           0.0000                   RIV =           0.0000     RIV_SYS2                         
                 RCH =           0.0000                   RCH =           0.0000     RCH_MSW                          

            TOTAL IN =      293263.7971              TOTAL IN =        1347.0344

          OUT:                                     OUT:
          ----                                     ----
              STO-SS =           0.0000                STO-SS =           0.0000     STORAGE                          
                 DRN =        6231.5852                   DRN =          12.6530     DRN_SYS1                         
                 RIV =      269962.6852                   RIV =        1287.8308     RIV_SYS1                         
                 RIV =       17069.6633                   RIV =          46.5512     RIV_SYS2                         
                 RCH =           0.0000                   RCH =           0.0000     RCH_MSW                          

           TOTAL OUT =      293263.9336             TOTAL OUT =        1347.0349

            IN - OUT =          -0.1365              IN - OUT =      -4.7152E-04

 PERCENT DISCREPANCY =          -0.00     PERCENT DISCREPANCY =          -0.00




         TIME SUMMARY AT END OF TIME STEP    1 IN STRESS PERIOD   85
                    SECONDS     MINUTES      HOURS       DAYS        YEARS
                    -----------------------------------------------------------
   TIME STEP LENGTH  86400.      1440.0      24.000      1.0000     2.73785E-03
 STRESS PERIOD TIME  86400.      1440.0      24.000      1.0000     2.73785E-03
         TOTAL TIME 7.34400E+06 1.22400E+05  2040.0      85.000     0.23272    


end timestep


start timestep kper="86" kstp="1" mode="normal"

 #Stressperiod Save Options

 BEGIN READING OUTPUT CONTROL FOR STRESS PERIOD 86
      ALL TIME STEPS WILL BE SAVED
      ALL TIME STEPS WILL BE SAVED

 END READING OUTPUT CONTROL FOR STRESS PERIOD 86


 PROCESSING STORAGE PERIOD DATA
 END PROCESSING STORAGE PERIOD DATA


 STRESS PERIOD 86 IS TRANSIENT


 REUSING DRNS FROM LAST STRESS PERIOD

 REUSING RIVS FROM LAST STRESS PERIOD

 REUSING RIVS FROM LAST STRESS PERIOD

 REUSING RCHS FROM LAST STRESS PERIOD
 UBDSV06 SAVING              DRN IN MODEL GWF_1            PACKAGE GWF_1           CONNECTED TO MODEL GWF_1            PACKAGE DRN_SYS1         ON UNIT   1018 AT TIME STEP      1, STRESS PERIOD     86
 UBDSV06 SAVING              RIV IN MODEL GWF_1            PACKAGE GWF_1           CONNECTED TO MODEL GWF_1            PACKAGE RIV_SYS1         ON UNIT   1018 AT TIME STEP      1, STRESS PERIOD     86
 UBDSV06 SAVING              RIV IN MODEL GWF_1            PACKAGE GWF_1           CONNECTED TO MODEL GWF_1            PACKAGE RIV_SYS2         ON UNIT   1018 AT TIME STEP      1, STRESS PERIOD     86

 HEAD WILL BE SAVED ON UNIT 1017 AT END OF TIME STEP    1, STRESS PERIOD   86


  VOLUME BUDGET FOR ENTIRE MODEL AT END OF TIME STEP    1, STRESS PERIOD  86
  ---------------------------------------------------------------------------------------------------

     CUMULATIVE VOLUME      L**3       RATES FOR THIS TIME STEP      L**3/T          PACKAGE NAME    
     ------------------                 ------------------------                     ----------------

           IN:                                      IN:
           ---                                      ---
              STO-SS =      225651.4753                STO-SS =          98.6257     STORAGE                          
                 DRN =           0.0000                   DRN =           0.0000     DRN_SYS1                         
                 RIV =       68955.6297                   RIV =        1244.6822     RIV_SYS1                         
                 RIV =           0.0000                   RIV =           0.0000     RIV_SYS2                         
                 RCH =           0.0000                   RCH =           0.0000     RCH_MSW                          

            TOTAL IN =      294607.1050              TOTAL IN =        1343.3079

          OUT:                                     OUT:
          ----                                     ----
              STO-SS =           0.0000                STO-SS =           0.0000     STORAGE                          
                 DRN =        6244.0656                   DRN =          12.4804     DRN_SYS1                         
                 RIV =      271247.3283                   RIV =        1284.6431     RIV_SYS1                         
                 RIV =       17115.8482                   RIV =          46.1849     RIV_SYS2                         
                 RCH =           0.0000                   RCH =           0.0000     RCH_MSW                          

           TOTAL OUT =      294607.2420             TOTAL OUT =        1343.3084

            IN - OUT =          -0.1370              IN - OUT =      -4.4638E-04

 PERCENT DISCREPANCY =          -0.00     PERCENT DISCREPANCY =          -0.00




         TIME SUMMARY AT END OF TIME STEP    1 IN STRESS PERIOD   86
                    SECONDS     MINUTES      HOURS       DAYS        YEARS
                    -----------------------------------------------------------
   TIME STEP LENGTH  86400.      1440.0      24.000      1.0000     2.73785E-03
 STRESS PERIOD TIME  86400.      1440.0      24.000      1.0000     2.73785E-03
         TOTAL TIME 7.43040E+06 1.23840E+05  2064.0      86.000     0.23546    


end timestep


start timestep kper="87" kstp="1" mode="normal"

 #Stressperiod Save Options

 BEGIN READING OUTPUT CONTROL FOR STRESS PERIOD 87
      ALL TIME STEPS WILL BE SAVED
      ALL TIME STEPS WILL BE SAVED

 END READING OUTPUT CONTROL FOR STRESS PERIOD 87


 PROCESSING STORAGE PERIOD DATA
 END PROCESSING STORAGE PERIOD DATA


 STRESS PERIOD 87 IS TRANSIENT


 REUSING DRNS FROM LAST STRESS PERIOD

 REUSING RIVS FROM LAST STRESS PERIOD

 REUSING RIVS FROM LAST STRESS PERIOD

 REUSING RCHS FROM LAST STRESS PERIOD
 UBDSV06 SAVING              DRN IN MODEL GWF_1            PACKAGE GWF_1           CONNECTED TO MODEL GWF_1            PACKAGE DRN_SYS1         ON UNIT   1018 AT TIME STEP      1, STRESS PERIOD     87
 UBDSV06 SAVING              RIV IN MODEL GWF_1            PACKAGE GWF_1           CONNECTED TO MODEL GWF_1            PACKAGE RIV_SYS1         ON UNIT   1018 AT TIME STEP      1, STRESS PERIOD     87
 UBDSV06 SAVING              RIV IN MODEL GWF_1            PACKAGE GWF_1           CONNECTED TO MODEL GWF_1            PACKAGE RIV_SYS2         ON UNIT   1018 AT TIME STEP      1, STRESS PERIOD     87

 HEAD WILL BE SAVED ON UNIT 1017 AT END OF TIME STEP    1, STRESS PERIOD   87


  VOLUME BUDGET FOR ENTIRE MODEL AT END OF TIME STEP    1, STRESS PERIOD  87
  ---------------------------------------------------------------------------------------------------

     CUMULATIVE VOLUME      L**3       RATES FOR THIS TIME STEP      L**3/T          PACKAGE NAME    
     ------------------                 ------------------------                     ----------------

           IN:                                      IN:
           ---                                      ---
              STO-SS =      225744.9391                STO-SS =          93.4638     STORAGE                          
                 DRN =           0.0000                   DRN =           0.0000     DRN_SYS1                         
                 RIV =       70201.9424                   RIV =        1246.3127     RIV_SYS1                         
                 RIV =           0.0000                   RIV =           0.0000     RIV_SYS2                         
                 RCH =           0.0000                   RCH =           0.0000     RCH_MSW                          

            TOTAL IN =      295946.8816              TOTAL IN =        1339.7766

          OUT:                                     OUT:
          ----                                     ----
              STO-SS =           0.0000                STO-SS =           0.0000     STORAGE                          
                 DRN =        6256.3823                   DRN =          12.3168     DRN_SYS1                         
                 RIV =      272528.9504                   RIV =        1281.6221     RIV_SYS1                         
                 RIV =       17161.6862                   RIV =          45.8381     RIV_SYS2                         
                 RCH =           0.0000                   RCH =           0.0000     RCH_MSW                          

           TOTAL OUT =      295947.0190             TOTAL OUT =        1339.7770

            IN - OUT =          -0.1374              IN - OUT =      -4.2258E-04

 PERCENT DISCREPANCY =          -0.00     PERCENT DISCREPANCY =          -0.00




         TIME SUMMARY AT END OF TIME STEP    1 IN STRESS PERIOD   87
                    SECONDS     MINUTES      HOURS       DAYS        YEARS
                    -----------------------------------------------------------
   TIME STEP LENGTH  86400.      1440.0      24.000      1.0000     2.73785E-03
 STRESS PERIOD TIME  86400.      1440.0      24.000      1.0000     2.73785E-03
         TOTAL TIME 7.51680E+06 1.25280E+05  2088.0      87.000     0.23819    


end timestep


start timestep kper="88" kstp="1" mode="normal"

 #Stressperiod Save Options

 BEGIN READING OUTPUT CONTROL FOR STRESS PERIOD 88
      ALL TIME STEPS WILL BE SAVED
      ALL TIME STEPS WILL BE SAVED

 END READING OUTPUT CONTROL FOR STRESS PERIOD 88


 PROCESSING STORAGE PERIOD DATA
 END PROCESSING STORAGE PERIOD DATA


 STRESS PERIOD 88 IS TRANSIENT


 REUSING DRNS FROM LAST STRESS PERIOD

 REUSING RIVS FROM LAST STRESS PERIOD

 REUSING RIVS FROM LAST STRESS PERIOD

 REUSING RCHS FROM LAST STRESS PERIOD
 UBDSV06 SAVING              DRN IN MODEL GWF_1            PACKAGE GWF_1           CONNECTED TO MODEL GWF_1            PACKAGE DRN_SYS1         ON UNIT   1018 AT TIME STEP      1, STRESS PERIOD     88
 UBDSV06 SAVING              RIV IN MODEL GWF_1            PACKAGE GWF_1           CONNECTED TO MODEL GWF_1            PACKAGE RIV_SYS1         ON UNIT   1018 AT TIME STEP      1, STRESS PERIOD     88
 UBDSV06 SAVING              RIV IN MODEL GWF_1            PACKAGE GWF_1           CONNECTED TO MODEL GWF_1            PACKAGE RIV_SYS2         ON UNIT   1018 AT TIME STEP      1, STRESS PERIOD     88

 HEAD WILL BE SAVED ON UNIT 1017 AT END OF TIME STEP    1, STRESS PERIOD   88


  VOLUME BUDGET FOR ENTIRE MODEL AT END OF TIME STEP    1, STRESS PERIOD  88
  ---------------------------------------------------------------------------------------------------

     CUMULATIVE VOLUME      L**3       RATES FOR THIS TIME STEP      L**3/T          PACKAGE NAME    
     ------------------                 ------------------------                     ----------------

           IN:                                      IN:
           ---                                      ---
              STO-SS =      225833.5115                STO-SS =          88.5723     STORAGE                          
                 DRN =           0.0000                   DRN =           0.0000     DRN_SYS1                         
                 RIV =       71449.8003                   RIV =        1247.8579     RIV_SYS1                         
                 RIV =           0.0000                   RIV =           0.0000     RIV_SYS2                         
                 RCH =           0.0000                   RCH =           0.0000     RCH_MSW                          

            TOTAL IN =      297283.3118              TOTAL IN =        1336.4302

          OUT:                                     OUT:
          ----                                     ----
              STO-SS =           0.0000                STO-SS =           0.0000     STORAGE                          
                 DRN =        6268.5439                   DRN =          12.1616     DRN_SYS1                         
                 RIV =      273807.7097                   RIV =        1278.7593     RIV_SYS1                         
                 RIV =       17207.1960                   RIV =          45.5097     RIV_SYS2                         
                 RCH =           0.0000                   RCH =           0.0000     RCH_MSW                          

           TOTAL OUT =      297283.4496             TOTAL OUT =        1336.4306

            IN - OUT =          -0.1378              IN - OUT =      -4.0007E-04

 PERCENT DISCREPANCY =          -0.00     PERCENT DISCREPANCY =          -0.00




         TIME SUMMARY AT END OF TIME STEP    1 IN STRESS PERIOD   88
                    SECONDS     MINUTES      HOURS       DAYS        YEARS
                    -----------------------------------------------------------
   TIME STEP LENGTH  86400.      1440.0      24.000      1.0000     2.73785E-03
 STRESS PERIOD TIME  86400.      1440.0      24.000      1.0000     2.73785E-03
         TOTAL TIME 7.60320E+06 1.26720E+05  2112.0      88.000     0.24093    


end timestep


start timestep kper="89" kstp="1" mode="normal"

 #Stressperiod Save Options

 BEGIN READING OUTPUT CONTROL FOR STRESS PERIOD 89
      ALL TIME STEPS WILL BE SAVED
      ALL TIME STEPS WILL BE SAVED

 END READING OUTPUT CONTROL FOR STRESS PERIOD 89


 PROCESSING STORAGE PERIOD DATA
 END PROCESSING STORAGE PERIOD DATA


 STRESS PERIOD 89 IS TRANSIENT


 REUSING DRNS FROM LAST STRESS PERIOD

 REUSING RIVS FROM LAST STRESS PERIOD

 REUSING RIVS FROM LAST STRESS PERIOD

 REUSING RCHS FROM LAST STRESS PERIOD
 UBDSV06 SAVING              DRN IN MODEL GWF_1            PACKAGE GWF_1           CONNECTED TO MODEL GWF_1            PACKAGE DRN_SYS1         ON UNIT   1018 AT TIME STEP      1, STRESS PERIOD     89
 UBDSV06 SAVING              RIV IN MODEL GWF_1            PACKAGE GWF_1           CONNECTED TO MODEL GWF_1            PACKAGE RIV_SYS1         ON UNIT   1018 AT TIME STEP      1, STRESS PERIOD     89
 UBDSV06 SAVING              RIV IN MODEL GWF_1            PACKAGE GWF_1           CONNECTED TO MODEL GWF_1            PACKAGE RIV_SYS2         ON UNIT   1018 AT TIME STEP      1, STRESS PERIOD     89

 HEAD WILL BE SAVED ON UNIT 1017 AT END OF TIME STEP    1, STRESS PERIOD   89


  VOLUME BUDGET FOR ENTIRE MODEL AT END OF TIME STEP    1, STRESS PERIOD  89
  ---------------------------------------------------------------------------------------------------

     CUMULATIVE VOLUME      L**3       RATES FOR THIS TIME STEP      L**3/T          PACKAGE NAME    
     ------------------                 ------------------------                     ----------------

           IN:                                      IN:
           ---                                      ---
              STO-SS =      225917.4419                STO-SS =          83.9305     STORAGE                          
                 DRN =           0.0000                   DRN =           0.0000     DRN_SYS1                         
                 RIV =       72699.1216                   RIV =        1249.3213     RIV_SYS1                         
                 RIV =           0.0000                   RIV =           0.0000     RIV_SYS2                         
                 RCH =           0.0000                   RCH =           0.0000     RCH_MSW                          

            TOTAL IN =      298616.5635              TOTAL IN =        1333.2517

          OUT:                                     OUT:
          ----                                     ----
              STO-SS =           0.0000                STO-SS =           0.0000     STORAGE                          
                 DRN =        6280.5583                   DRN =          12.0144     DRN_SYS1                         
                 RIV =      275083.7572                   RIV =        1276.0475     RIV_SYS1                         
                 RIV =       17252.3949                   RIV =          45.1989     RIV_SYS2                         
                 RCH =           0.0000                   RCH =           0.0000     RCH_MSW                          

           TOTAL OUT =      298616.7104             TOTAL OUT =        1333.2608

            IN - OUT =          -0.1469              IN - OUT =      -9.0947E-03

 PERCENT DISCREPANCY =          -0.00     PERCENT DISCREPANCY =          -0.00




         TIME SUMMARY AT END OF TIME STEP    1 IN STRESS PERIOD   89
                    SECONDS     MINUTES      HOURS       DAYS        YEARS
                    -----------------------------------------------------------
   TIME STEP LENGTH  86400.      1440.0      24.000      1.0000     2.73785E-03
 STRESS PERIOD TIME  86400.      1440.0      24.000      1.0000     2.73785E-03
         TOTAL TIME 7.68960E+06 1.28160E+05  2136.0      89.000     0.24367    


end timestep


start timestep kper="90" kstp="1" mode="normal"

 #Stressperiod Save Options

 BEGIN READING OUTPUT CONTROL FOR STRESS PERIOD 90
      ALL TIME STEPS WILL BE SAVED
      ALL TIME STEPS WILL BE SAVED

 END READING OUTPUT CONTROL FOR STRESS PERIOD 90


 PROCESSING STORAGE PERIOD DATA
 END PROCESSING STORAGE PERIOD DATA


 STRESS PERIOD 90 IS TRANSIENT


 REUSING DRNS FROM LAST STRESS PERIOD

 REUSING RIVS FROM LAST STRESS PERIOD

 REUSING RIVS FROM LAST STRESS PERIOD

 REUSING RCHS FROM LAST STRESS PERIOD
 UBDSV06 SAVING              DRN IN MODEL GWF_1            PACKAGE GWF_1           CONNECTED TO MODEL GWF_1            PACKAGE DRN_SYS1         ON UNIT   1018 AT TIME STEP      1, STRESS PERIOD     90
 UBDSV06 SAVING              RIV IN MODEL GWF_1            PACKAGE GWF_1           CONNECTED TO MODEL GWF_1            PACKAGE RIV_SYS1         ON UNIT   1018 AT TIME STEP      1, STRESS PERIOD     90
 UBDSV06 SAVING              RIV IN MODEL GWF_1            PACKAGE GWF_1           CONNECTED TO MODEL GWF_1            PACKAGE RIV_SYS2         ON UNIT   1018 AT TIME STEP      1, STRESS PERIOD     90

 HEAD WILL BE SAVED ON UNIT 1017 AT END OF TIME STEP    1, STRESS PERIOD   90


  VOLUME BUDGET FOR ENTIRE MODEL AT END OF TIME STEP    1, STRESS PERIOD  90
  ---------------------------------------------------------------------------------------------------

     CUMULATIVE VOLUME      L**3       RATES FOR THIS TIME STEP      L**3/T          PACKAGE NAME    
     ------------------                 ------------------------                     ----------------

           IN:                                      IN:
           ---                                      ---
              STO-SS =      225996.9816                STO-SS =          79.5396     STORAGE                          
                 DRN =           0.0000                   DRN =           0.0000     DRN_SYS1                         
                 RIV =       73949.8298                   RIV =        1250.7083     RIV_SYS1                         
                 RIV =           0.0000                   RIV =           0.0000     RIV_SYS2                         
                 RCH =           0.0000                   RCH =           0.0000     RCH_MSW                          

            TOTAL IN =      299946.8114              TOTAL IN =        1330.2479

          OUT:                                     OUT:
          ----                                     ----
              STO-SS =           0.0000                STO-SS =           0.0000     STORAGE                          
                 DRN =        6292.4332                   DRN =          11.8749     DRN_SYS1                         
                 RIV =      276357.2343                   RIV =        1273.4771     RIV_SYS1                         
                 RIV =       17297.2994                   RIV =          44.9045     RIV_SYS2                         
                 RCH =           0.0000                   RCH =           0.0000     RCH_MSW                          

           TOTAL OUT =      299946.9669             TOTAL OUT =        1330.2565

            IN - OUT =          -0.1555              IN - OUT =      -8.6076E-03

 PERCENT DISCREPANCY =          -0.00     PERCENT DISCREPANCY =          -0.00




         TIME SUMMARY AT END OF TIME STEP    1 IN STRESS PERIOD   90
                    SECONDS     MINUTES      HOURS       DAYS        YEARS
                    -----------------------------------------------------------
   TIME STEP LENGTH  86400.      1440.0      24.000      1.0000     2.73785E-03
 STRESS PERIOD TIME  86400.      1440.0      24.000      1.0000     2.73785E-03
         TOTAL TIME 7.77600E+06 1.29600E+05  2160.0      90.000     0.24641    


end timestep


start timestep kper="91" kstp="1" mode="normal"

 #Stressperiod Save Options

 BEGIN READING OUTPUT CONTROL FOR STRESS PERIOD 91
      ALL TIME STEPS WILL BE SAVED
      ALL TIME STEPS WILL BE SAVED

 END READING OUTPUT CONTROL FOR STRESS PERIOD 91


 PROCESSING STORAGE PERIOD DATA
 END PROCESSING STORAGE PERIOD DATA


 STRESS PERIOD 91 IS TRANSIENT


 REUSING DRNS FROM LAST STRESS PERIOD

 REUSING RIVS FROM LAST STRESS PERIOD

 REUSING RIVS FROM LAST STRESS PERIOD

 REUSING RCHS FROM LAST STRESS PERIOD
 UBDSV06 SAVING              DRN IN MODEL GWF_1            PACKAGE GWF_1           CONNECTED TO MODEL GWF_1            PACKAGE DRN_SYS1         ON UNIT   1018 AT TIME STEP      1, STRESS PERIOD     91
 UBDSV06 SAVING              RIV IN MODEL GWF_1            PACKAGE GWF_1           CONNECTED TO MODEL GWF_1            PACKAGE RIV_SYS1         ON UNIT   1018 AT TIME STEP      1, STRESS PERIOD     91
 UBDSV06 SAVING              RIV IN MODEL GWF_1            PACKAGE GWF_1           CONNECTED TO MODEL GWF_1            PACKAGE RIV_SYS2         ON UNIT   1018 AT TIME STEP      1, STRESS PERIOD     91

 HEAD WILL BE SAVED ON UNIT 1017 AT END OF TIME STEP    1, STRESS PERIOD   91


  VOLUME BUDGET FOR ENTIRE MODEL AT END OF TIME STEP    1, STRESS PERIOD  91
  ---------------------------------------------------------------------------------------------------

     CUMULATIVE VOLUME      L**3       RATES FOR THIS TIME STEP      L**3/T          PACKAGE NAME    
     ------------------                 ------------------------                     ----------------

           IN:                                      IN:
           ---                                      ---
              STO-SS =      226072.3600                STO-SS =          75.3784     STORAGE                          
                 DRN =           0.0000                   DRN =           0.0000     DRN_SYS1                         
                 RIV =       75201.8526                   RIV =        1252.0227     RIV_SYS1                         
                 RIV =           0.0000                   RIV =           0.0000     RIV_SYS2                         
                 RCH =           0.0000                   RCH =           0.0000     RCH_MSW                          

            TOTAL IN =      301274.2125              TOTAL IN =        1327.4011

          OUT:                                     OUT:
          ----                                     ----
              STO-SS =           0.0000                STO-SS =           0.0000     STORAGE                          
                 DRN =        6304.1758                   DRN =          11.7426     DRN_SYS1                         
                 RIV =      277628.2752                   RIV =        1271.0409     RIV_SYS1                         
                 RIV =       17341.9252                   RIV =          44.6258     RIV_SYS2                         
                 RCH =           0.0000                   RCH =           0.0000     RCH_MSW                          

           TOTAL OUT =      301274.3762             TOTAL OUT =        1327.4093

            IN - OUT =          -0.1636              IN - OUT =      -8.1515E-03

 PERCENT DISCREPANCY =          -0.00     PERCENT DISCREPANCY =          -0.00




         TIME SUMMARY AT END OF TIME STEP    1 IN STRESS PERIOD   91
                    SECONDS     MINUTES      HOURS       DAYS        YEARS
                    -----------------------------------------------------------
   TIME STEP LENGTH  86400.      1440.0      24.000      1.0000     2.73785E-03
 STRESS PERIOD TIME  86400.      1440.0      24.000      1.0000     2.73785E-03
         TOTAL TIME 7.86240E+06 1.31040E+05  2184.0      91.000     0.24914    


end timestep


start timestep kper="92" kstp="1" mode="normal"

 #Stressperiod Save Options

 BEGIN READING OUTPUT CONTROL FOR STRESS PERIOD 92
      ALL TIME STEPS WILL BE SAVED
      ALL TIME STEPS WILL BE SAVED

 END READING OUTPUT CONTROL FOR STRESS PERIOD 92


 PROCESSING STORAGE PERIOD DATA
 END PROCESSING STORAGE PERIOD DATA


 STRESS PERIOD 92 IS TRANSIENT


 REUSING DRNS FROM LAST STRESS PERIOD

 REUSING RIVS FROM LAST STRESS PERIOD

 REUSING RIVS FROM LAST STRESS PERIOD

 REUSING RCHS FROM LAST STRESS PERIOD
 UBDSV06 SAVING              DRN IN MODEL GWF_1            PACKAGE GWF_1           CONNECTED TO MODEL GWF_1            PACKAGE DRN_SYS1         ON UNIT   1018 AT TIME STEP      1, STRESS PERIOD     92
 UBDSV06 SAVING              RIV IN MODEL GWF_1            PACKAGE GWF_1           CONNECTED TO MODEL GWF_1            PACKAGE RIV_SYS1         ON UNIT   1018 AT TIME STEP      1, STRESS PERIOD     92
 UBDSV06 SAVING              RIV IN MODEL GWF_1            PACKAGE GWF_1           CONNECTED TO MODEL GWF_1            PACKAGE RIV_SYS2         ON UNIT   1018 AT TIME STEP      1, STRESS PERIOD     92

 HEAD WILL BE SAVED ON UNIT 1017 AT END OF TIME STEP    1, STRESS PERIOD   92


  VOLUME BUDGET FOR ENTIRE MODEL AT END OF TIME STEP    1, STRESS PERIOD  92
  ---------------------------------------------------------------------------------------------------

     CUMULATIVE VOLUME      L**3       RATES FOR THIS TIME STEP      L**3/T          PACKAGE NAME    
     ------------------                 ------------------------                     ----------------

           IN:                                      IN:
           ---                                      ---
              STO-SS =      226143.7947                STO-SS =          71.4348     STORAGE                          
                 DRN =           0.0000                   DRN =           0.0000     DRN_SYS1                         
                 RIV =       76455.1210                   RIV =        1253.2685     RIV_SYS1                         
                 RIV =           0.0000                   RIV =           0.0000     RIV_SYS2                         
                 RCH =           0.0000                   RCH =           0.0000     RCH_MSW                          

            TOTAL IN =      302598.9158              TOTAL IN =        1324.7032

          OUT:                                     OUT:
          ----                                     ----
              STO-SS =           0.0000                STO-SS =           0.0000     STORAGE                          
                 DRN =        6315.7929                   DRN =          11.6171     DRN_SYS1                         
                 RIV =      278897.0072                   RIV =        1268.7320     RIV_SYS1                         
                 RIV =       17386.2870                   RIV =          44.3619     RIV_SYS2                         
                 RCH =           0.0000                   RCH =           0.0000     RCH_MSW                          

           TOTAL OUT =      302599.0871             TOTAL OUT =        1324.7110

            IN - OUT =          -0.1714              IN - OUT =      -7.7213E-03

 PERCENT DISCREPANCY =          -0.00     PERCENT DISCREPANCY =          -0.00




         TIME SUMMARY AT END OF TIME STEP    1 IN STRESS PERIOD   92
                    SECONDS     MINUTES      HOURS       DAYS        YEARS
                    -----------------------------------------------------------
   TIME STEP LENGTH  86400.      1440.0      24.000      1.0000     2.73785E-03
 STRESS PERIOD TIME  86400.      1440.0      24.000      1.0000     2.73785E-03
         TOTAL TIME 7.94880E+06 1.32480E+05  2208.0      92.000     0.25188    


end timestep


start timestep kper="93" kstp="1" mode="normal"

 #Stressperiod Save Options

 BEGIN READING OUTPUT CONTROL FOR STRESS PERIOD 93
      ALL TIME STEPS WILL BE SAVED
      ALL TIME STEPS WILL BE SAVED

 END READING OUTPUT CONTROL FOR STRESS PERIOD 93


 PROCESSING STORAGE PERIOD DATA
 END PROCESSING STORAGE PERIOD DATA


 STRESS PERIOD 93 IS TRANSIENT


 REUSING DRNS FROM LAST STRESS PERIOD

 REUSING RIVS FROM LAST STRESS PERIOD

 REUSING RIVS FROM LAST STRESS PERIOD

 REUSING RCHS FROM LAST STRESS PERIOD
 UBDSV06 SAVING              DRN IN MODEL GWF_1            PACKAGE GWF_1           CONNECTED TO MODEL GWF_1            PACKAGE DRN_SYS1         ON UNIT   1018 AT TIME STEP      1, STRESS PERIOD     93
 UBDSV06 SAVING              RIV IN MODEL GWF_1            PACKAGE GWF_1           CONNECTED TO MODEL GWF_1            PACKAGE RIV_SYS1         ON UNIT   1018 AT TIME STEP      1, STRESS PERIOD     93
 UBDSV06 SAVING              RIV IN MODEL GWF_1            PACKAGE GWF_1           CONNECTED TO MODEL GWF_1            PACKAGE RIV_SYS2         ON UNIT   1018 AT TIME STEP      1, STRESS PERIOD     93

 HEAD WILL BE SAVED ON UNIT 1017 AT END OF TIME STEP    1, STRESS PERIOD   93


  VOLUME BUDGET FOR ENTIRE MODEL AT END OF TIME STEP    1, STRESS PERIOD  93
  ---------------------------------------------------------------------------------------------------

     CUMULATIVE VOLUME      L**3       RATES FOR THIS TIME STEP      L**3/T          PACKAGE NAME    
     ------------------                 ------------------------                     ----------------

           IN:                                      IN:
           ---                                      ---
              STO-SS =      226211.4923                STO-SS =          67.6975     STORAGE                          
                 DRN =           0.0000                   DRN =           0.0000     DRN_SYS1                         
                 RIV =       77709.5700                   RIV =        1254.4490     RIV_SYS1                         
                 RIV =           0.0000                   RIV =           0.0000     RIV_SYS2                         
                 RCH =           0.0000                   RCH =           0.0000     RCH_MSW                          

            TOTAL IN =      303921.0623              TOTAL IN =        1322.1465

          OUT:                                     OUT:
          ----                                     ----
              STO-SS =           0.0000                STO-SS =           0.0000     STORAGE                          
                 DRN =        6327.2910                   DRN =          11.4981     DRN_SYS1                         
                 RIV =      280163.5510                   RIV =        1266.5438     RIV_SYS1                         
                 RIV =       17430.3990                   RIV =          44.1119     RIV_SYS2                         
                 RCH =           0.0000                   RCH =           0.0000     RCH_MSW                          

           TOTAL OUT =      303921.2410             TOTAL OUT =        1322.1538

            IN - OUT =          -0.1787              IN - OUT =      -7.3145E-03

 PERCENT DISCREPANCY =          -0.00     PERCENT DISCREPANCY =          -0.00




         TIME SUMMARY AT END OF TIME STEP    1 IN STRESS PERIOD   93
                    SECONDS     MINUTES      HOURS       DAYS        YEARS
                    -----------------------------------------------------------
   TIME STEP LENGTH  86400.      1440.0      24.000      1.0000     2.73785E-03
 STRESS PERIOD TIME  86400.      1440.0      24.000      1.0000     2.73785E-03
         TOTAL TIME 8.03520E+06 1.33920E+05  2232.0      93.000     0.25462    


end timestep


start timestep kper="94" kstp="1" mode="normal"

 #Stressperiod Save Options

 BEGIN READING OUTPUT CONTROL FOR STRESS PERIOD 94
      ALL TIME STEPS WILL BE SAVED
      ALL TIME STEPS WILL BE SAVED

 END READING OUTPUT CONTROL FOR STRESS PERIOD 94


 PROCESSING STORAGE PERIOD DATA
 END PROCESSING STORAGE PERIOD DATA


 STRESS PERIOD 94 IS TRANSIENT


 REUSING DRNS FROM LAST STRESS PERIOD

 REUSING RIVS FROM LAST STRESS PERIOD

 REUSING RIVS FROM LAST STRESS PERIOD

 REUSING RCHS FROM LAST STRESS PERIOD
 UBDSV06 SAVING              DRN IN MODEL GWF_1            PACKAGE GWF_1           CONNECTED TO MODEL GWF_1            PACKAGE DRN_SYS1         ON UNIT   1018 AT TIME STEP      1, STRESS PERIOD     94
 UBDSV06 SAVING              RIV IN MODEL GWF_1            PACKAGE GWF_1           CONNECTED TO MODEL GWF_1            PACKAGE RIV_SYS1         ON UNIT   1018 AT TIME STEP      1, STRESS PERIOD     94
 UBDSV06 SAVING              RIV IN MODEL GWF_1            PACKAGE GWF_1           CONNECTED TO MODEL GWF_1            PACKAGE RIV_SYS2         ON UNIT   1018 AT TIME STEP      1, STRESS PERIOD     94

 HEAD WILL BE SAVED ON UNIT 1017 AT END OF TIME STEP    1, STRESS PERIOD   94


  VOLUME BUDGET FOR ENTIRE MODEL AT END OF TIME STEP    1, STRESS PERIOD  94
  ---------------------------------------------------------------------------------------------------

     CUMULATIVE VOLUME      L**3       RATES FOR THIS TIME STEP      L**3/T          PACKAGE NAME    
     ------------------                 ------------------------                     ----------------

           IN:                                      IN:
           ---                                      ---
              STO-SS =      226275.6481                STO-SS =          64.1558     STORAGE                          
                 DRN =           0.0000                   DRN =           0.0000     DRN_SYS1                         
                 RIV =       78965.1378                   RIV =        1255.5678     RIV_SYS1                         
                 RIV =           0.0000                   RIV =           0.0000     RIV_SYS2                         
                 RCH =           0.0000                   RCH =           0.0000     RCH_MSW                          

            TOTAL IN =      305240.7859              TOTAL IN =        1319.7236

          OUT:                                     OUT:
          ----                                     ----
              STO-SS =           0.0000                STO-SS =           0.0000     STORAGE                          
                 DRN =        6338.6762                   DRN =          11.3853     DRN_SYS1                         
                 RIV =      281428.0210                   RIV =        1264.4700     RIV_SYS1                         
                 RIV =       17474.2743                   RIV =          43.8753     RIV_SYS2                         
                 RCH =           0.0000                   RCH =           0.0000     RCH_MSW                          

           TOTAL OUT =      305240.9715             TOTAL OUT =        1319.7305

            IN - OUT =          -0.1856              IN - OUT =      -6.9295E-03

 PERCENT DISCREPANCY =          -0.00     PERCENT DISCREPANCY =          -0.00




         TIME SUMMARY AT END OF TIME STEP    1 IN STRESS PERIOD   94
                    SECONDS     MINUTES      HOURS       DAYS        YEARS
                    -----------------------------------------------------------
   TIME STEP LENGTH  86400.      1440.0      24.000      1.0000     2.73785E-03
 STRESS PERIOD TIME  86400.      1440.0      24.000      1.0000     2.73785E-03
         TOTAL TIME 8.12160E+06 1.35360E+05  2256.0      94.000     0.25736    


end timestep


start timestep kper="95" kstp="1" mode="normal"

 #Stressperiod Save Options

 BEGIN READING OUTPUT CONTROL FOR STRESS PERIOD 95
      ALL TIME STEPS WILL BE SAVED
      ALL TIME STEPS WILL BE SAVED

 END READING OUTPUT CONTROL FOR STRESS PERIOD 95


 PROCESSING STORAGE PERIOD DATA
 END PROCESSING STORAGE PERIOD DATA


 STRESS PERIOD 95 IS TRANSIENT


 REUSING DRNS FROM LAST STRESS PERIOD

 REUSING RIVS FROM LAST STRESS PERIOD

 REUSING RIVS FROM LAST STRESS PERIOD

 REUSING RCHS FROM LAST STRESS PERIOD
 UBDSV06 SAVING              DRN IN MODEL GWF_1            PACKAGE GWF_1           CONNECTED TO MODEL GWF_1            PACKAGE DRN_SYS1         ON UNIT   1018 AT TIME STEP      1, STRESS PERIOD     95
 UBDSV06 SAVING              RIV IN MODEL GWF_1            PACKAGE GWF_1           CONNECTED TO MODEL GWF_1            PACKAGE RIV_SYS1         ON UNIT   1018 AT TIME STEP      1, STRESS PERIOD     95
 UBDSV06 SAVING              RIV IN MODEL GWF_1            PACKAGE GWF_1           CONNECTED TO MODEL GWF_1            PACKAGE RIV_SYS2         ON UNIT   1018 AT TIME STEP      1, STRESS PERIOD     95

 HEAD WILL BE SAVED ON UNIT 1017 AT END OF TIME STEP    1, STRESS PERIOD   95


  VOLUME BUDGET FOR ENTIRE MODEL AT END OF TIME STEP    1, STRESS PERIOD  95
  ---------------------------------------------------------------------------------------------------

     CUMULATIVE VOLUME      L**3       RATES FOR THIS TIME STEP      L**3/T          PACKAGE NAME    
     ------------------                 ------------------------                     ----------------

           IN:                                      IN:
           ---                                      ---
              STO-SS =      226336.4475                STO-SS =          60.7995     STORAGE                          
                 DRN =           0.0000                   DRN =           0.0000     DRN_SYS1                         
                 RIV =       80221.7658                   RIV =        1256.6280     RIV_SYS1                         
                 RIV =           0.0000                   RIV =           0.0000     RIV_SYS2                         
                 RCH =           0.0000                   RCH =           0.0000     RCH_MSW                          

            TOTAL IN =      306558.2133              TOTAL IN =        1317.4275

          OUT:                                     OUT:
          ----                                     ----
              STO-SS =           0.0000                STO-SS =           0.0000     STORAGE                          
                 DRN =        6349.9545                   DRN =          11.2783     DRN_SYS1                         
                 RIV =      282690.5256                   RIV =        1262.5046     RIV_SYS1                         
                 RIV =       17517.9254                   RIV =          43.6512     RIV_SYS2                         
                 RCH =           0.0000                   RCH =           0.0000     RCH_MSW                          

           TOTAL OUT =      306558.4055             TOTAL OUT =        1317.4340

            IN - OUT =          -0.1922              IN - OUT =      -6.5649E-03

 PERCENT DISCREPANCY =          -0.00     PERCENT DISCREPANCY =          -0.00




         TIME SUMMARY AT END OF TIME STEP    1 IN STRESS PERIOD   95
                    SECONDS     MINUTES      HOURS       DAYS        YEARS
                    -----------------------------------------------------------
   TIME STEP LENGTH  86400.      1440.0      24.000      1.0000     2.73785E-03
 STRESS PERIOD TIME  86400.      1440.0      24.000      1.0000     2.73785E-03
         TOTAL TIME 8.20800E+06 1.36800E+05  2280.0      95.000     0.26010    


end timestep


start timestep kper="96" kstp="1" mode="normal"

 #Stressperiod Save Options

 BEGIN READING OUTPUT CONTROL FOR STRESS PERIOD 96
      ALL TIME STEPS WILL BE SAVED
      ALL TIME STEPS WILL BE SAVED

 END READING OUTPUT CONTROL FOR STRESS PERIOD 96


 PROCESSING STORAGE PERIOD DATA
 END PROCESSING STORAGE PERIOD DATA


 STRESS PERIOD 96 IS TRANSIENT


 REUSING DRNS FROM LAST STRESS PERIOD

 REUSING RIVS FROM LAST STRESS PERIOD

 REUSING RIVS FROM LAST STRESS PERIOD

 REUSING RCHS FROM LAST STRESS PERIOD
 UBDSV06 SAVING              DRN IN MODEL GWF_1            PACKAGE GWF_1           CONNECTED TO MODEL GWF_1            PACKAGE DRN_SYS1         ON UNIT   1018 AT TIME STEP      1, STRESS PERIOD     96
 UBDSV06 SAVING              RIV IN MODEL GWF_1            PACKAGE GWF_1           CONNECTED TO MODEL GWF_1            PACKAGE RIV_SYS1         ON UNIT   1018 AT TIME STEP      1, STRESS PERIOD     96
 UBDSV06 SAVING              RIV IN MODEL GWF_1            PACKAGE GWF_1           CONNECTED TO MODEL GWF_1            PACKAGE RIV_SYS2         ON UNIT   1018 AT TIME STEP      1, STRESS PERIOD     96

 HEAD WILL BE SAVED ON UNIT 1017 AT END OF TIME STEP    1, STRESS PERIOD   96


  VOLUME BUDGET FOR ENTIRE MODEL AT END OF TIME STEP    1, STRESS PERIOD  96
  ---------------------------------------------------------------------------------------------------

     CUMULATIVE VOLUME      L**3       RATES FOR THIS TIME STEP      L**3/T          PACKAGE NAME    
     ------------------                 ------------------------                     ----------------

           IN:                                      IN:
           ---                                      ---
              STO-SS =      226394.0663                STO-SS =          57.6188     STORAGE                          
                 DRN =           0.0000                   DRN =           0.0000     DRN_SYS1                         
                 RIV =       81479.3986                   RIV =        1257.6328     RIV_SYS1                         
                 RIV =           0.0000                   RIV =           0.0000     RIV_SYS2                         
                 RCH =           0.0000                   RCH =           0.0000     RCH_MSW                          

            TOTAL IN =      307873.4649              TOTAL IN =        1315.2515

          OUT:                                     OUT:
          ----                                     ----
              STO-SS =           0.0000                STO-SS =           0.0000     STORAGE                          
                 DRN =        6361.1313                   DRN =          11.1768     DRN_SYS1                         
                 RIV =      283951.1676                   RIV =        1260.6420     RIV_SYS1                         
                 RIV =       17561.3644                   RIV =          43.4390     RIV_SYS2                         
                 RCH =           0.0000                   RCH =           0.0000     RCH_MSW                          

           TOTAL OUT =      307873.6633             TOTAL OUT =        1315.2577

            IN - OUT =          -0.1984              IN - OUT =      -6.2197E-03

 PERCENT DISCREPANCY =          -0.00     PERCENT DISCREPANCY =          -0.00




         TIME SUMMARY AT END OF TIME STEP    1 IN STRESS PERIOD   96
                    SECONDS     MINUTES      HOURS       DAYS        YEARS
                    -----------------------------------------------------------
   TIME STEP LENGTH  86400.      1440.0      24.000      1.0000     2.73785E-03
 STRESS PERIOD TIME  86400.      1440.0      24.000      1.0000     2.73785E-03
         TOTAL TIME 8.29440E+06 1.38240E+05  2304.0      96.000     0.26283    


end timestep


start timestep kper="97" kstp="1" mode="normal"

 #Stressperiod Save Options

 BEGIN READING OUTPUT CONTROL FOR STRESS PERIOD 97
      ALL TIME STEPS WILL BE SAVED
      ALL TIME STEPS WILL BE SAVED

 END READING OUTPUT CONTROL FOR STRESS PERIOD 97


 PROCESSING STORAGE PERIOD DATA
 END PROCESSING STORAGE PERIOD DATA


 STRESS PERIOD 97 IS TRANSIENT


 REUSING DRNS FROM LAST STRESS PERIOD

 REUSING RIVS FROM LAST STRESS PERIOD

 REUSING RIVS FROM LAST STRESS PERIOD

 REUSING RCHS FROM LAST STRESS PERIOD
 UBDSV06 SAVING              DRN IN MODEL GWF_1            PACKAGE GWF_1           CONNECTED TO MODEL GWF_1            PACKAGE DRN_SYS1         ON UNIT   1018 AT TIME STEP      1, STRESS PERIOD     97
 UBDSV06 SAVING              RIV IN MODEL GWF_1            PACKAGE GWF_1           CONNECTED TO MODEL GWF_1            PACKAGE RIV_SYS1         ON UNIT   1018 AT TIME STEP      1, STRESS PERIOD     97
 UBDSV06 SAVING              RIV IN MODEL GWF_1            PACKAGE GWF_1           CONNECTED TO MODEL GWF_1            PACKAGE RIV_SYS2         ON UNIT   1018 AT TIME STEP      1, STRESS PERIOD     97

 HEAD WILL BE SAVED ON UNIT 1017 AT END OF TIME STEP    1, STRESS PERIOD   97


  VOLUME BUDGET FOR ENTIRE MODEL AT END OF TIME STEP    1, STRESS PERIOD  97
  ---------------------------------------------------------------------------------------------------

     CUMULATIVE VOLUME      L**3       RATES FOR THIS TIME STEP      L**3/T          PACKAGE NAME    
     ------------------                 ------------------------                     ----------------

           IN:                                      IN:
           ---                                      ---
              STO-SS =      226448.6708                STO-SS =          54.6045     STORAGE                          
                 DRN =           0.0000                   DRN =           0.0000     DRN_SYS1                         
                 RIV =       82737.9835                   RIV =        1258.5849     RIV_SYS1                         
                 RIV =           0.0000                   RIV =           0.0000     RIV_SYS2                         
                 RCH =           0.0000                   RCH =           0.0000     RCH_MSW                          

            TOTAL IN =      309186.6543              TOTAL IN =        1313.1895

          OUT:                                     OUT:
          ----                                     ----
              STO-SS =           0.0000                STO-SS =           0.0000     STORAGE                          
                 DRN =        6372.2118                   DRN =          11.0806     DRN_SYS1                         
                 RIV =      285210.0444                   RIV =        1258.8768     RIV_SYS1                         
                 RIV =       17604.6024                   RIV =          43.2380     RIV_SYS2                         
                 RCH =           0.0000                   RCH =           0.0000     RCH_MSW                          

           TOTAL OUT =      309186.8586             TOTAL OUT =        1313.1954

            IN - OUT =          -0.2043              IN - OUT =      -5.8928E-03

 PERCENT DISCREPANCY =          -0.00     PERCENT DISCREPANCY =          -0.00




         TIME SUMMARY AT END OF TIME STEP    1 IN STRESS PERIOD   97
                    SECONDS     MINUTES      HOURS       DAYS        YEARS
                    -----------------------------------------------------------
   TIME STEP LENGTH  86400.      1440.0      24.000      1.0000     2.73785E-03
 STRESS PERIOD TIME  86400.      1440.0      24.000      1.0000     2.73785E-03
         TOTAL TIME 8.38080E+06 1.39680E+05  2328.0      97.000     0.26557    


end timestep


start timestep kper="98" kstp="1" mode="normal"

 #Stressperiod Save Options

 BEGIN READING OUTPUT CONTROL FOR STRESS PERIOD 98
      ALL TIME STEPS WILL BE SAVED
      ALL TIME STEPS WILL BE SAVED

 END READING OUTPUT CONTROL FOR STRESS PERIOD 98


 PROCESSING STORAGE PERIOD DATA
 END PROCESSING STORAGE PERIOD DATA


 STRESS PERIOD 98 IS TRANSIENT


 REUSING DRNS FROM LAST STRESS PERIOD

 REUSING RIVS FROM LAST STRESS PERIOD

 REUSING RIVS FROM LAST STRESS PERIOD

 REUSING RCHS FROM LAST STRESS PERIOD
 UBDSV06 SAVING              DRN IN MODEL GWF_1            PACKAGE GWF_1           CONNECTED TO MODEL GWF_1            PACKAGE DRN_SYS1         ON UNIT   1018 AT TIME STEP      1, STRESS PERIOD     98
 UBDSV06 SAVING              RIV IN MODEL GWF_1            PACKAGE GWF_1           CONNECTED TO MODEL GWF_1            PACKAGE RIV_SYS1         ON UNIT   1018 AT TIME STEP      1, STRESS PERIOD     98
 UBDSV06 SAVING              RIV IN MODEL GWF_1            PACKAGE GWF_1           CONNECTED TO MODEL GWF_1            PACKAGE RIV_SYS2         ON UNIT   1018 AT TIME STEP      1, STRESS PERIOD     98

 HEAD WILL BE SAVED ON UNIT 1017 AT END OF TIME STEP    1, STRESS PERIOD   98


  VOLUME BUDGET FOR ENTIRE MODEL AT END OF TIME STEP    1, STRESS PERIOD  98
  ---------------------------------------------------------------------------------------------------

     CUMULATIVE VOLUME      L**3       RATES FOR THIS TIME STEP      L**3/T          PACKAGE NAME    
     ------------------                 ------------------------                     ----------------

           IN:                                      IN:
           ---                                      ---
              STO-SS =      226500.4189                STO-SS =          51.7480     STORAGE                          
                 DRN =           0.0000                   DRN =           0.0000     DRN_SYS1                         
                 RIV =       83997.4708                   RIV =        1259.4873     RIV_SYS1                         
                 RIV =           0.0000                   RIV =           0.0000     RIV_SYS2                         
                 RCH =           0.0000                   RCH =           0.0000     RCH_MSW                          

            TOTAL IN =      310497.8897              TOTAL IN =        1311.2353

          OUT:                                     OUT:
          ----                                     ----
              STO-SS =           0.0000                STO-SS =           0.0000     STORAGE                          
                 DRN =        6383.2011                   DRN =          10.9893     DRN_SYS1                         
                 RIV =      286467.2483                   RIV =        1257.2039     RIV_SYS1                         
                 RIV =       17647.6501                   RIV =          43.0477     RIV_SYS2                         
                 RCH =           0.0000                   RCH =           0.0000     RCH_MSW                          

           TOTAL OUT =      310498.0995             TOTAL OUT =        1311.2409

            IN - OUT =          -0.2099              IN - OUT =      -5.5831E-03

 PERCENT DISCREPANCY =          -0.00     PERCENT DISCREPANCY =          -0.00




         TIME SUMMARY AT END OF TIME STEP    1 IN STRESS PERIOD   98
                    SECONDS     MINUTES      HOURS       DAYS        YEARS
                    -----------------------------------------------------------
   TIME STEP LENGTH  86400.      1440.0      24.000      1.0000     2.73785E-03
 STRESS PERIOD TIME  86400.      1440.0      24.000      1.0000     2.73785E-03
         TOTAL TIME 8.46720E+06 1.41120E+05  2352.0      98.000     0.26831    


end timestep


start timestep kper="99" kstp="1" mode="normal"

 #Stressperiod Save Options

 BEGIN READING OUTPUT CONTROL FOR STRESS PERIOD 99
      ALL TIME STEPS WILL BE SAVED
      ALL TIME STEPS WILL BE SAVED

 END READING OUTPUT CONTROL FOR STRESS PERIOD 99


 PROCESSING STORAGE PERIOD DATA
 END PROCESSING STORAGE PERIOD DATA


 STRESS PERIOD 99 IS TRANSIENT


 REUSING DRNS FROM LAST STRESS PERIOD

 REUSING RIVS FROM LAST STRESS PERIOD

 REUSING RIVS FROM LAST STRESS PERIOD

 REUSING RCHS FROM LAST STRESS PERIOD
 UBDSV06 SAVING              DRN IN MODEL GWF_1            PACKAGE GWF_1           CONNECTED TO MODEL GWF_1            PACKAGE DRN_SYS1         ON UNIT   1018 AT TIME STEP      1, STRESS PERIOD     99
 UBDSV06 SAVING              RIV IN MODEL GWF_1            PACKAGE GWF_1           CONNECTED TO MODEL GWF_1            PACKAGE RIV_SYS1         ON UNIT   1018 AT TIME STEP      1, STRESS PERIOD     99
 UBDSV06 SAVING              RIV IN MODEL GWF_1            PACKAGE GWF_1           CONNECTED TO MODEL GWF_1            PACKAGE RIV_SYS2         ON UNIT   1018 AT TIME STEP      1, STRESS PERIOD     99

 HEAD WILL BE SAVED ON UNIT 1017 AT END OF TIME STEP    1, STRESS PERIOD   99


  VOLUME BUDGET FOR ENTIRE MODEL AT END OF TIME STEP    1, STRESS PERIOD  99
  ---------------------------------------------------------------------------------------------------

     CUMULATIVE VOLUME      L**3       RATES FOR THIS TIME STEP      L**3/T          PACKAGE NAME    
     ------------------                 ------------------------                     ----------------

           IN:                                      IN:
           ---                                      ---
              STO-SS =      226549.4599                STO-SS =          49.0410     STORAGE                          
                 DRN =           0.0000                   DRN =           0.0000     DRN_SYS1                         
                 RIV =       85257.8132                   RIV =        1260.3424     RIV_SYS1                         
                 RIV =           0.0000                   RIV =           0.0000     RIV_SYS2                         
                 RCH =           0.0000                   RCH =           0.0000     RCH_MSW                          

            TOTAL IN =      311807.2732              TOTAL IN =        1309.3835

          OUT:                                     OUT:
          ----                                     ----
              STO-SS =           0.0000                STO-SS =           0.0000     STORAGE                          
                 DRN =        6394.1040                   DRN =          10.9028     DRN_SYS1                         
                 RIV =      287722.8668                   RIV =        1255.6185     RIV_SYS1                         
                 RIV =       17690.5176                   RIV =          42.8675     RIV_SYS2                         
                 RCH =           0.0000                   RCH =           0.0000     RCH_MSW                          

           TOTAL OUT =      311807.4883             TOTAL OUT =        1309.3888

            IN - OUT =          -0.2151              IN - OUT =      -5.2897E-03

 PERCENT DISCREPANCY =          -0.00     PERCENT DISCREPANCY =          -0.00




         TIME SUMMARY AT END OF TIME STEP    1 IN STRESS PERIOD   99
                    SECONDS     MINUTES      HOURS       DAYS        YEARS
                    -----------------------------------------------------------
   TIME STEP LENGTH  86400.      1440.0      24.000      1.0000     2.73785E-03
 STRESS PERIOD TIME  86400.      1440.0      24.000      1.0000     2.73785E-03
         TOTAL TIME 8.55360E+06 1.42560E+05  2376.0      99.000     0.27105    


end timestep


start timestep kper="100" kstp="1" mode="normal"

 #Stressperiod Save Options

 BEGIN READING OUTPUT CONTROL FOR STRESS PERIOD 100
      ALL TIME STEPS WILL BE SAVED
      ALL TIME STEPS WILL BE SAVED

 END READING OUTPUT CONTROL FOR STRESS PERIOD 100


 PROCESSING STORAGE PERIOD DATA
 END PROCESSING STORAGE PERIOD DATA


 STRESS PERIOD 100 IS TRANSIENT


 REUSING DRNS FROM LAST STRESS PERIOD

 REUSING RIVS FROM LAST STRESS PERIOD

 REUSING RIVS FROM LAST STRESS PERIOD

 REUSING RCHS FROM LAST STRESS PERIOD
 UBDSV06 SAVING              DRN IN MODEL GWF_1            PACKAGE GWF_1           CONNECTED TO MODEL GWF_1            PACKAGE DRN_SYS1         ON UNIT   1018 AT TIME STEP      1, STRESS PERIOD    100
 UBDSV06 SAVING              RIV IN MODEL GWF_1            PACKAGE GWF_1           CONNECTED TO MODEL GWF_1            PACKAGE RIV_SYS1         ON UNIT   1018 AT TIME STEP      1, STRESS PERIOD    100
 UBDSV06 SAVING              RIV IN MODEL GWF_1            PACKAGE GWF_1           CONNECTED TO MODEL GWF_1            PACKAGE RIV_SYS2         ON UNIT   1018 AT TIME STEP      1, STRESS PERIOD    100

 HEAD WILL BE SAVED ON UNIT 1017 AT END OF TIME STEP    1, STRESS PERIOD  100


  VOLUME BUDGET FOR ENTIRE MODEL AT END OF TIME STEP    1, STRESS PERIOD 100
  ---------------------------------------------------------------------------------------------------

     CUMULATIVE VOLUME      L**3       RATES FOR THIS TIME STEP      L**3/T          PACKAGE NAME    
     ------------------                 ------------------------                     ----------------

           IN:                                      IN:
           ---                                      ---
              STO-SS =      226595.9356                STO-SS =          46.4757     STORAGE                          
                 DRN =           0.0000                   DRN =           0.0000     DRN_SYS1                         
                 RIV =       86518.9661                   RIV =        1261.1528     RIV_SYS1                         
                 RIV =           0.0000                   RIV =           0.0000     RIV_SYS2                         
                 RCH =           0.0000                   RCH =           0.0000     RCH_MSW                          

            TOTAL IN =      313114.9017              TOTAL IN =        1307.6286

          OUT:                                     OUT:
          ----                                     ----
              STO-SS =           0.0000                STO-SS =           0.0000     STORAGE                          
                 DRN =        6404.9247                   DRN =          10.8208     DRN_SYS1                         
                 RIV =      288976.9828                   RIV =        1254.1160     RIV_SYS1                         
                 RIV =       17733.2144                   RIV =          42.6968     RIV_SYS2                         
                 RCH =           0.0000                   RCH =           0.0000     RCH_MSW                          

           TOTAL OUT =      313115.1219             TOTAL OUT =        1307.6336

            IN - OUT =          -0.2202              IN - OUT =      -5.0119E-03

 PERCENT DISCREPANCY =          -0.00     PERCENT DISCREPANCY =          -0.00




         TIME SUMMARY AT END OF TIME STEP    1 IN STRESS PERIOD  100
                    SECONDS     MINUTES      HOURS       DAYS        YEARS
                    -----------------------------------------------------------
   TIME STEP LENGTH  86400.      1440.0      24.000      1.0000     2.73785E-03
 STRESS PERIOD TIME  86400.      1440.0      24.000      1.0000     2.73785E-03
         TOTAL TIME 8.64000E+06 1.44000E+05  2400.0      100.00     0.27379    


end timestep


start timestep kper="101" kstp="1" mode="normal"

 #Stressperiod Save Options

 BEGIN READING OUTPUT CONTROL FOR STRESS PERIOD 101
      ALL TIME STEPS WILL BE SAVED
      ALL TIME STEPS WILL BE SAVED

 END READING OUTPUT CONTROL FOR STRESS PERIOD 101


 PROCESSING STORAGE PERIOD DATA
 END PROCESSING STORAGE PERIOD DATA


 STRESS PERIOD 101 IS TRANSIENT


 REUSING DRNS FROM LAST STRESS PERIOD

 REUSING RIVS FROM LAST STRESS PERIOD

 REUSING RIVS FROM LAST STRESS PERIOD

 REUSING RCHS FROM LAST STRESS PERIOD
 UBDSV06 SAVING              DRN IN MODEL GWF_1            PACKAGE GWF_1           CONNECTED TO MODEL GWF_1            PACKAGE DRN_SYS1         ON UNIT   1018 AT TIME STEP      1, STRESS PERIOD    101
 UBDSV06 SAVING              RIV IN MODEL GWF_1            PACKAGE GWF_1           CONNECTED TO MODEL GWF_1            PACKAGE RIV_SYS1         ON UNIT   1018 AT TIME STEP      1, STRESS PERIOD    101
 UBDSV06 SAVING              RIV IN MODEL GWF_1            PACKAGE GWF_1           CONNECTED TO MODEL GWF_1            PACKAGE RIV_SYS2         ON UNIT   1018 AT TIME STEP      1, STRESS PERIOD    101

 HEAD WILL BE SAVED ON UNIT 1017 AT END OF TIME STEP    1, STRESS PERIOD  101


  VOLUME BUDGET FOR ENTIRE MODEL AT END OF TIME STEP    1, STRESS PERIOD 101
  ---------------------------------------------------------------------------------------------------

     CUMULATIVE VOLUME      L**3       RATES FOR THIS TIME STEP      L**3/T          PACKAGE NAME    
     ------------------                 ------------------------                     ----------------

           IN:                                      IN:
           ---                                      ---
              STO-SS =      226639.9803                STO-SS =          44.0446     STORAGE                          
                 DRN =           0.0000                   DRN =           0.0000     DRN_SYS1                         
                 RIV =       87780.8869                   RIV =        1261.9208     RIV_SYS1                         
                 RIV =           0.0000                   RIV =           0.0000     RIV_SYS2                         
                 RCH =           0.0000                   RCH =           0.0000     RCH_MSW                          

            TOTAL IN =      314420.8672              TOTAL IN =        1305.9655

          OUT:                                     OUT:
          ----                                     ----
              STO-SS =           0.0000                STO-SS =           0.0000     STORAGE                          
                 DRN =        6415.6677                   DRN =          10.7430     DRN_SYS1                         
                 RIV =      290229.6748                   RIV =        1252.6921     RIV_SYS1                         
                 RIV =       17775.7496                   RIV =          42.5352     RIV_SYS2                         
                 RCH =           0.0000                   RCH =           0.0000     RCH_MSW                          

           TOTAL OUT =      314421.0921             TOTAL OUT =        1305.9702

            IN - OUT =          -0.2249              IN - OUT =      -4.7486E-03

 PERCENT DISCREPANCY =          -0.00     PERCENT DISCREPANCY =          -0.00




         TIME SUMMARY AT END OF TIME STEP    1 IN STRESS PERIOD  101
                    SECONDS     MINUTES      HOURS       DAYS        YEARS
                    -----------------------------------------------------------
   TIME STEP LENGTH  86400.      1440.0      24.000      1.0000     2.73785E-03
 STRESS PERIOD TIME  86400.      1440.0      24.000      1.0000     2.73785E-03
         TOTAL TIME 8.72640E+06 1.45440E+05  2424.0      101.00     0.27652    


end timestep


start timestep kper="102" kstp="1" mode="normal"

 #Stressperiod Save Options

 BEGIN READING OUTPUT CONTROL FOR STRESS PERIOD 102
      ALL TIME STEPS WILL BE SAVED
      ALL TIME STEPS WILL BE SAVED

 END READING OUTPUT CONTROL FOR STRESS PERIOD 102


 PROCESSING STORAGE PERIOD DATA
 END PROCESSING STORAGE PERIOD DATA


 STRESS PERIOD 102 IS TRANSIENT


 REUSING DRNS FROM LAST STRESS PERIOD

 REUSING RIVS FROM LAST STRESS PERIOD

 REUSING RIVS FROM LAST STRESS PERIOD

 REUSING RCHS FROM LAST STRESS PERIOD
 UBDSV06 SAVING              DRN IN MODEL GWF_1            PACKAGE GWF_1           CONNECTED TO MODEL GWF_1            PACKAGE DRN_SYS1         ON UNIT   1018 AT TIME STEP      1, STRESS PERIOD    102
 UBDSV06 SAVING              RIV IN MODEL GWF_1            PACKAGE GWF_1           CONNECTED TO MODEL GWF_1            PACKAGE RIV_SYS1         ON UNIT   1018 AT TIME STEP      1, STRESS PERIOD    102
 UBDSV06 SAVING              RIV IN MODEL GWF_1            PACKAGE GWF_1           CONNECTED TO MODEL GWF_1            PACKAGE RIV_SYS2         ON UNIT   1018 AT TIME STEP      1, STRESS PERIOD    102

 HEAD WILL BE SAVED ON UNIT 1017 AT END OF TIME STEP    1, STRESS PERIOD  102


  VOLUME BUDGET FOR ENTIRE MODEL AT END OF TIME STEP    1, STRESS PERIOD 102
  ---------------------------------------------------------------------------------------------------

     CUMULATIVE VOLUME      L**3       RATES FOR THIS TIME STEP      L**3/T          PACKAGE NAME    
     ------------------                 ------------------------                     ----------------

           IN:                                      IN:
           ---                                      ---
              STO-SS =      226681.7211                STO-SS =          41.7408     STORAGE                          
                 DRN =           0.0000                   DRN =           0.0000     DRN_SYS1                         
                 RIV =       89043.5356                   RIV =        1262.6487     RIV_SYS1                         
                 RIV =           0.0000                   RIV =           0.0000     RIV_SYS2                         
                 RCH =           0.0000                   RCH =           0.0000     RCH_MSW                          

            TOTAL IN =      315725.2567              TOTAL IN =        1304.3895

          OUT:                                     OUT:
          ----                                     ----
              STO-SS =           0.0000                STO-SS =           0.0000     STORAGE                          
                 DRN =        6426.3369                   DRN =          10.6692     DRN_SYS1                         
                 RIV =      291481.0174                   RIV =        1251.3426     RIV_SYS1                         
                 RIV =       17818.1317                   RIV =          42.3821     RIV_SYS2                         
                 RCH =           0.0000                   RCH =           0.0000     RCH_MSW                          

           TOTAL OUT =      315725.4861             TOTAL OUT =        1304.3940

            IN - OUT =          -0.2294              IN - OUT =      -4.4993E-03

 PERCENT DISCREPANCY =          -0.00     PERCENT DISCREPANCY =          -0.00




         TIME SUMMARY AT END OF TIME STEP    1 IN STRESS PERIOD  102
                    SECONDS     MINUTES      HOURS       DAYS        YEARS
                    -----------------------------------------------------------
   TIME STEP LENGTH  86400.      1440.0      24.000      1.0000     2.73785E-03
 STRESS PERIOD TIME  86400.      1440.0      24.000      1.0000     2.73785E-03
         TOTAL TIME 8.81280E+06 1.46880E+05  2448.0      102.00     0.27926    


end timestep


start timestep kper="103" kstp="1" mode="normal"

 #Stressperiod Save Options

 BEGIN READING OUTPUT CONTROL FOR STRESS PERIOD 103
      ALL TIME STEPS WILL BE SAVED
      ALL TIME STEPS WILL BE SAVED

 END READING OUTPUT CONTROL FOR STRESS PERIOD 103


 PROCESSING STORAGE PERIOD DATA
 END PROCESSING STORAGE PERIOD DATA


 STRESS PERIOD 103 IS TRANSIENT


 REUSING DRNS FROM LAST STRESS PERIOD

 REUSING RIVS FROM LAST STRESS PERIOD

 REUSING RIVS FROM LAST STRESS PERIOD

 REUSING RCHS FROM LAST STRESS PERIOD
 UBDSV06 SAVING              DRN IN MODEL GWF_1            PACKAGE GWF_1           CONNECTED TO MODEL GWF_1            PACKAGE DRN_SYS1         ON UNIT   1018 AT TIME STEP      1, STRESS PERIOD    103
 UBDSV06 SAVING              RIV IN MODEL GWF_1            PACKAGE GWF_1           CONNECTED TO MODEL GWF_1            PACKAGE RIV_SYS1         ON UNIT   1018 AT TIME STEP      1, STRESS PERIOD    103
 UBDSV06 SAVING              RIV IN MODEL GWF_1            PACKAGE GWF_1           CONNECTED TO MODEL GWF_1            PACKAGE RIV_SYS2         ON UNIT   1018 AT TIME STEP      1, STRESS PERIOD    103

 HEAD WILL BE SAVED ON UNIT 1017 AT END OF TIME STEP    1, STRESS PERIOD  103


  VOLUME BUDGET FOR ENTIRE MODEL AT END OF TIME STEP    1, STRESS PERIOD 103
  ---------------------------------------------------------------------------------------------------

     CUMULATIVE VOLUME      L**3       RATES FOR THIS TIME STEP      L**3/T          PACKAGE NAME    
     ------------------                 ------------------------                     ----------------

           IN:                                      IN:
           ---                                      ---
              STO-SS =      226721.2786                STO-SS =          39.5575     STORAGE                          
                 DRN =           0.0000                   DRN =           0.0000     DRN_SYS1                         
                 RIV =       90306.8740                   RIV =        1263.3384     RIV_SYS1                         
                 RIV =           0.0000                   RIV =           0.0000     RIV_SYS2                         
                 RCH =           0.0000                   RCH =           0.0000     RCH_MSW                          

            TOTAL IN =      317028.1526              TOTAL IN =        1302.8959

          OUT:                                     OUT:
          ----                                     ----
              STO-SS =           0.0000                STO-SS =           0.0000     STORAGE                          
                 DRN =        6436.9362                   DRN =          10.5993     DRN_SYS1                         
                 RIV =      292731.0811                   RIV =        1250.0637     RIV_SYS1                         
                 RIV =       17860.3689                   RIV =          42.2372     RIV_SYS2                         
                 RCH =           0.0000                   RCH =           0.0000     RCH_MSW                          

           TOTAL OUT =      317028.3862             TOTAL OUT =        1302.9002

            IN - OUT =          -0.2337              IN - OUT =      -4.2631E-03

 PERCENT DISCREPANCY =          -0.00     PERCENT DISCREPANCY =          -0.00




         TIME SUMMARY AT END OF TIME STEP    1 IN STRESS PERIOD  103
                    SECONDS     MINUTES      HOURS       DAYS        YEARS
                    -----------------------------------------------------------
   TIME STEP LENGTH  86400.      1440.0      24.000      1.0000     2.73785E-03
 STRESS PERIOD TIME  86400.      1440.0      24.000      1.0000     2.73785E-03
         TOTAL TIME 8.89920E+06 1.48320E+05  2472.0      103.00     0.28200    


end timestep


start timestep kper="104" kstp="1" mode="normal"

 #Stressperiod Save Options

 BEGIN READING OUTPUT CONTROL FOR STRESS PERIOD 104
      ALL TIME STEPS WILL BE SAVED
      ALL TIME STEPS WILL BE SAVED

 END READING OUTPUT CONTROL FOR STRESS PERIOD 104


 PROCESSING STORAGE PERIOD DATA
 END PROCESSING STORAGE PERIOD DATA


 STRESS PERIOD 104 IS TRANSIENT


 REUSING DRNS FROM LAST STRESS PERIOD

 REUSING RIVS FROM LAST STRESS PERIOD

 REUSING RIVS FROM LAST STRESS PERIOD

 REUSING RCHS FROM LAST STRESS PERIOD
 UBDSV06 SAVING              DRN IN MODEL GWF_1            PACKAGE GWF_1           CONNECTED TO MODEL GWF_1            PACKAGE DRN_SYS1         ON UNIT   1018 AT TIME STEP      1, STRESS PERIOD    104
 UBDSV06 SAVING              RIV IN MODEL GWF_1            PACKAGE GWF_1           CONNECTED TO MODEL GWF_1            PACKAGE RIV_SYS1         ON UNIT   1018 AT TIME STEP      1, STRESS PERIOD    104
 UBDSV06 SAVING              RIV IN MODEL GWF_1            PACKAGE GWF_1           CONNECTED TO MODEL GWF_1            PACKAGE RIV_SYS2         ON UNIT   1018 AT TIME STEP      1, STRESS PERIOD    104

 HEAD WILL BE SAVED ON UNIT 1017 AT END OF TIME STEP    1, STRESS PERIOD  104


  VOLUME BUDGET FOR ENTIRE MODEL AT END OF TIME STEP    1, STRESS PERIOD 104
  ---------------------------------------------------------------------------------------------------

     CUMULATIVE VOLUME      L**3       RATES FOR THIS TIME STEP      L**3/T          PACKAGE NAME    
     ------------------                 ------------------------                     ----------------

           IN:                                      IN:
           ---                                      ---
              STO-SS =      226758.7671                STO-SS =          37.4885     STORAGE                          
                 DRN =           0.0000                   DRN =           0.0000     DRN_SYS1                         
                 RIV =       91570.8660                   RIV =        1263.9920     RIV_SYS1                         
                 RIV =           0.0000                   RIV =           0.0000     RIV_SYS2                         
                 RCH =           0.0000                   RCH =           0.0000     RCH_MSW                          

            TOTAL IN =      318329.6331              TOTAL IN =        1301.4805

          OUT:                                     OUT:
          ----                                     ----
              STO-SS =           0.0000                STO-SS =           0.0000     STORAGE                          
                 DRN =        6447.4692                   DRN =          10.5330     DRN_SYS1                         
                 RIV =      293979.9328                   RIV =        1248.8517     RIV_SYS1                         
                 RIV =       17902.4688                   RIV =          42.0999     RIV_SYS2                         
                 RCH =           0.0000                   RCH =           0.0000     RCH_MSW                          

           TOTAL OUT =      318329.8708             TOTAL OUT =        1301.4846

            IN - OUT =          -0.2377              IN - OUT =      -4.0393E-03

 PERCENT DISCREPANCY =          -0.00     PERCENT DISCREPANCY =          -0.00




         TIME SUMMARY AT END OF TIME STEP    1 IN STRESS PERIOD  104
                    SECONDS     MINUTES      HOURS       DAYS        YEARS
                    -----------------------------------------------------------
   TIME STEP LENGTH  86400.      1440.0      24.000      1.0000     2.73785E-03
 STRESS PERIOD TIME  86400.      1440.0      24.000      1.0000     2.73785E-03
         TOTAL TIME 8.98560E+06 1.49760E+05  2496.0      104.00     0.28474    


end timestep


start timestep kper="105" kstp="1" mode="normal"

 #Stressperiod Save Options

 BEGIN READING OUTPUT CONTROL FOR STRESS PERIOD 105
      ALL TIME STEPS WILL BE SAVED
      ALL TIME STEPS WILL BE SAVED

 END READING OUTPUT CONTROL FOR STRESS PERIOD 105


 PROCESSING STORAGE PERIOD DATA
 END PROCESSING STORAGE PERIOD DATA


 STRESS PERIOD 105 IS TRANSIENT


 REUSING DRNS FROM LAST STRESS PERIOD

 REUSING RIVS FROM LAST STRESS PERIOD

 REUSING RIVS FROM LAST STRESS PERIOD

 REUSING RCHS FROM LAST STRESS PERIOD
 UBDSV06 SAVING              DRN IN MODEL GWF_1            PACKAGE GWF_1           CONNECTED TO MODEL GWF_1            PACKAGE DRN_SYS1         ON UNIT   1018 AT TIME STEP      1, STRESS PERIOD    105
 UBDSV06 SAVING              RIV IN MODEL GWF_1            PACKAGE GWF_1           CONNECTED TO MODEL GWF_1            PACKAGE RIV_SYS1         ON UNIT   1018 AT TIME STEP      1, STRESS PERIOD    105
 UBDSV06 SAVING              RIV IN MODEL GWF_1            PACKAGE GWF_1           CONNECTED TO MODEL GWF_1            PACKAGE RIV_SYS2         ON UNIT   1018 AT TIME STEP      1, STRESS PERIOD    105

 HEAD WILL BE SAVED ON UNIT 1017 AT END OF TIME STEP    1, STRESS PERIOD  105


  VOLUME BUDGET FOR ENTIRE MODEL AT END OF TIME STEP    1, STRESS PERIOD 105
  ---------------------------------------------------------------------------------------------------

     CUMULATIVE VOLUME      L**3       RATES FOR THIS TIME STEP      L**3/T          PACKAGE NAME    
     ------------------                 ------------------------                     ----------------

           IN:                                      IN:
           ---                                      ---
              STO-SS =      226794.2948                STO-SS =          35.5277     STORAGE                          
                 DRN =           0.0000                   DRN =           0.0000     DRN_SYS1                         
                 RIV =       92835.4775                   RIV =        1264.6115     RIV_SYS1                         
                 RIV =           0.0000                   RIV =           0.0000     RIV_SYS2                         
                 RCH =           0.0000                   RCH =           0.0000     RCH_MSW                          

            TOTAL IN =      319629.7723              TOTAL IN =        1300.1392

          OUT:                                     OUT:
          ----                                     ----
              STO-SS =           0.0000                STO-SS =           0.0000     STORAGE                          
                 DRN =        6457.9393                   DRN =          10.4701     DRN_SYS1                         
                 RIV =      295227.6359                   RIV =        1247.7031     RIV_SYS1                         
                 RIV =       17944.4387                   RIV =          41.9699     RIV_SYS2                         
                 RCH =           0.0000                   RCH =           0.0000     RCH_MSW                          

           TOTAL OUT =      319630.0138             TOTAL OUT =        1300.1430

            IN - OUT =          -0.2415              IN - OUT =      -3.8273E-03

 PERCENT DISCREPANCY =          -0.00     PERCENT DISCREPANCY =          -0.00




         TIME SUMMARY AT END OF TIME STEP    1 IN STRESS PERIOD  105
                    SECONDS     MINUTES      HOURS       DAYS        YEARS
                    -----------------------------------------------------------
   TIME STEP LENGTH  86400.      1440.0      24.000      1.0000     2.73785E-03
 STRESS PERIOD TIME  86400.      1440.0      24.000      1.0000     2.73785E-03
         TOTAL TIME 9.07200E+06 1.51200E+05  2520.0      105.00     0.28747    


end timestep


start timestep kper="106" kstp="1" mode="normal"

 #Stressperiod Save Options

 BEGIN READING OUTPUT CONTROL FOR STRESS PERIOD 106
      ALL TIME STEPS WILL BE SAVED
      ALL TIME STEPS WILL BE SAVED

 END READING OUTPUT CONTROL FOR STRESS PERIOD 106


 PROCESSING STORAGE PERIOD DATA
 END PROCESSING STORAGE PERIOD DATA


 STRESS PERIOD 106 IS TRANSIENT


 REUSING DRNS FROM LAST STRESS PERIOD

 REUSING RIVS FROM LAST STRESS PERIOD

 REUSING RIVS FROM LAST STRESS PERIOD

 REUSING RCHS FROM LAST STRESS PERIOD
 UBDSV06 SAVING              DRN IN MODEL GWF_1            PACKAGE GWF_1           CONNECTED TO MODEL GWF_1            PACKAGE DRN_SYS1         ON UNIT   1018 AT TIME STEP      1, STRESS PERIOD    106
 UBDSV06 SAVING              RIV IN MODEL GWF_1            PACKAGE GWF_1           CONNECTED TO MODEL GWF_1            PACKAGE RIV_SYS1         ON UNIT   1018 AT TIME STEP      1, STRESS PERIOD    106
 UBDSV06 SAVING              RIV IN MODEL GWF_1            PACKAGE GWF_1           CONNECTED TO MODEL GWF_1            PACKAGE RIV_SYS2         ON UNIT   1018 AT TIME STEP      1, STRESS PERIOD    106

 HEAD WILL BE SAVED ON UNIT 1017 AT END OF TIME STEP    1, STRESS PERIOD  106


  VOLUME BUDGET FOR ENTIRE MODEL AT END OF TIME STEP    1, STRESS PERIOD 106
  ---------------------------------------------------------------------------------------------------

     CUMULATIVE VOLUME      L**3       RATES FOR THIS TIME STEP      L**3/T          PACKAGE NAME    
     ------------------                 ------------------------                     ----------------

           IN:                                      IN:
           ---                                      ---
              STO-SS =      226827.9643                STO-SS =          33.6695     STORAGE                          
                 DRN =           0.0000                   DRN =           0.0000     DRN_SYS1                         
                 RIV =       94100.6761                   RIV =        1265.1985     RIV_SYS1                         
                 RIV =           0.0000                   RIV =           0.0000     RIV_SYS2                         
                 RCH =           0.0000                   RCH =           0.0000     RCH_MSW                          

            TOTAL IN =      320928.6404              TOTAL IN =        1298.8681

          OUT:                                     OUT:
          ----                                     ----
              STO-SS =           0.0000                STO-SS =           0.0000     STORAGE                          
                 DRN =        6468.3497                   DRN =          10.4105     DRN_SYS1                         
                 RIV =      296474.2504                   RIV =        1246.6145     RIV_SYS1                         
                 RIV =       17986.2854                   RIV =          41.8467     RIV_SYS2                         
                 RCH =           0.0000                   RCH =           0.0000     RCH_MSW                          

           TOTAL OUT =      320928.8855             TOTAL OUT =        1298.8717

            IN - OUT =          -0.2452              IN - OUT =      -3.6264E-03

 PERCENT DISCREPANCY =          -0.00     PERCENT DISCREPANCY =          -0.00




         TIME SUMMARY AT END OF TIME STEP    1 IN STRESS PERIOD  106
                    SECONDS     MINUTES      HOURS       DAYS        YEARS
                    -----------------------------------------------------------
   TIME STEP LENGTH  86400.      1440.0      24.000      1.0000     2.73785E-03
 STRESS PERIOD TIME  86400.      1440.0      24.000      1.0000     2.73785E-03
         TOTAL TIME 9.15840E+06 1.52640E+05  2544.0      106.00     0.29021    


end timestep


start timestep kper="107" kstp="1" mode="normal"

 #Stressperiod Save Options

 BEGIN READING OUTPUT CONTROL FOR STRESS PERIOD 107
      ALL TIME STEPS WILL BE SAVED
      ALL TIME STEPS WILL BE SAVED

 END READING OUTPUT CONTROL FOR STRESS PERIOD 107


 PROCESSING STORAGE PERIOD DATA
 END PROCESSING STORAGE PERIOD DATA


 STRESS PERIOD 107 IS TRANSIENT


 REUSING DRNS FROM LAST STRESS PERIOD

 REUSING RIVS FROM LAST STRESS PERIOD

 REUSING RIVS FROM LAST STRESS PERIOD

 REUSING RCHS FROM LAST STRESS PERIOD
 UBDSV06 SAVING              DRN IN MODEL GWF_1            PACKAGE GWF_1           CONNECTED TO MODEL GWF_1            PACKAGE DRN_SYS1         ON UNIT   1018 AT TIME STEP      1, STRESS PERIOD    107
 UBDSV06 SAVING              RIV IN MODEL GWF_1            PACKAGE GWF_1           CONNECTED TO MODEL GWF_1            PACKAGE RIV_SYS1         ON UNIT   1018 AT TIME STEP      1, STRESS PERIOD    107
 UBDSV06 SAVING              RIV IN MODEL GWF_1            PACKAGE GWF_1           CONNECTED TO MODEL GWF_1            PACKAGE RIV_SYS2         ON UNIT   1018 AT TIME STEP      1, STRESS PERIOD    107

 HEAD WILL BE SAVED ON UNIT 1017 AT END OF TIME STEP    1, STRESS PERIOD  107


  VOLUME BUDGET FOR ENTIRE MODEL AT END OF TIME STEP    1, STRESS PERIOD 107
  ---------------------------------------------------------------------------------------------------

     CUMULATIVE VOLUME      L**3       RATES FOR THIS TIME STEP      L**3/T          PACKAGE NAME    
     ------------------                 ------------------------                     ----------------

           IN:                                      IN:
           ---                                      ---
              STO-SS =      226859.8729                STO-SS =          31.9086     STORAGE                          
                 DRN =           0.0000                   DRN =           0.0000     DRN_SYS1                         
                 RIV =       95366.4309                   RIV =        1265.7549     RIV_SYS1                         
                 RIV =           0.0000                   RIV =           0.0000     RIV_SYS2                         
                 RCH =           0.0000                   RCH =           0.0000     RCH_MSW                          

            TOTAL IN =      322226.3038              TOTAL IN =        1297.6635

          OUT:                                     OUT:
          ----                                     ----
              STO-SS =           0.0000                STO-SS =           0.0000     STORAGE                          
                 DRN =        6478.7036                   DRN =          10.3539     DRN_SYS1                         
                 RIV =      297719.8332                   RIV =        1245.5829     RIV_SYS1                         
                 RIV =       18028.0156                   RIV =          41.7301     RIV_SYS2                         
                 RCH =           0.0000                   RCH =           0.0000     RCH_MSW                          

           TOTAL OUT =      322226.5524             TOTAL OUT =        1297.6669

            IN - OUT =          -0.2486              IN - OUT =      -3.4361E-03

 PERCENT DISCREPANCY =          -0.00     PERCENT DISCREPANCY =          -0.00




         TIME SUMMARY AT END OF TIME STEP    1 IN STRESS PERIOD  107
                    SECONDS     MINUTES      HOURS       DAYS        YEARS
                    -----------------------------------------------------------
   TIME STEP LENGTH  86400.      1440.0      24.000      1.0000     2.73785E-03
 STRESS PERIOD TIME  86400.      1440.0      24.000      1.0000     2.73785E-03
         TOTAL TIME 9.24480E+06 1.54080E+05  2568.0      107.00     0.29295    


end timestep


start timestep kper="108" kstp="1" mode="normal"

 #Stressperiod Save Options

 BEGIN READING OUTPUT CONTROL FOR STRESS PERIOD 108
      ALL TIME STEPS WILL BE SAVED
      ALL TIME STEPS WILL BE SAVED

 END READING OUTPUT CONTROL FOR STRESS PERIOD 108


 PROCESSING STORAGE PERIOD DATA
 END PROCESSING STORAGE PERIOD DATA


 STRESS PERIOD 108 IS TRANSIENT


 REUSING DRNS FROM LAST STRESS PERIOD

 REUSING RIVS FROM LAST STRESS PERIOD

 REUSING RIVS FROM LAST STRESS PERIOD

 REUSING RCHS FROM LAST STRESS PERIOD
 UBDSV06 SAVING              DRN IN MODEL GWF_1            PACKAGE GWF_1           CONNECTED TO MODEL GWF_1            PACKAGE DRN_SYS1         ON UNIT   1018 AT TIME STEP      1, STRESS PERIOD    108
 UBDSV06 SAVING              RIV IN MODEL GWF_1            PACKAGE GWF_1           CONNECTED TO MODEL GWF_1            PACKAGE RIV_SYS1         ON UNIT   1018 AT TIME STEP      1, STRESS PERIOD    108
 UBDSV06 SAVING              RIV IN MODEL GWF_1            PACKAGE GWF_1           CONNECTED TO MODEL GWF_1            PACKAGE RIV_SYS2         ON UNIT   1018 AT TIME STEP      1, STRESS PERIOD    108

 HEAD WILL BE SAVED ON UNIT 1017 AT END OF TIME STEP    1, STRESS PERIOD  108


  VOLUME BUDGET FOR ENTIRE MODEL AT END OF TIME STEP    1, STRESS PERIOD 108
  ---------------------------------------------------------------------------------------------------

     CUMULATIVE VOLUME      L**3       RATES FOR THIS TIME STEP      L**3/T          PACKAGE NAME    
     ------------------                 ------------------------                     ----------------

           IN:                                      IN:
           ---                                      ---
              STO-SS =      226890.1127                STO-SS =          30.2398     STORAGE                          
                 DRN =           0.0000                   DRN =           0.0000     DRN_SYS1                         
                 RIV =       96632.7130                   RIV =        1266.2821     RIV_SYS1                         
                 RIV =           0.0000                   RIV =           0.0000     RIV_SYS2                         
                 RCH =           0.0000                   RCH =           0.0000     RCH_MSW                          

            TOTAL IN =      323522.8258              TOTAL IN =        1296.5219

          OUT:                                     OUT:
          ----                                     ----
              STO-SS =           0.0000                STO-SS =           0.0000     STORAGE                          
                 DRN =        6489.0040                   DRN =          10.3003     DRN_SYS1                         
                 RIV =      298964.4384                   RIV =        1244.6052     RIV_SYS1                         
                 RIV =       18069.6352                   RIV =          41.6197     RIV_SYS2                         
                 RCH =           0.0000                   RCH =           0.0000     RCH_MSW                          

           TOTAL OUT =      323523.0776             TOTAL OUT =        1296.5252

            IN - OUT =          -0.2519              IN - OUT =      -3.2558E-03

 PERCENT DISCREPANCY =          -0.00     PERCENT DISCREPANCY =          -0.00




         TIME SUMMARY AT END OF TIME STEP    1 IN STRESS PERIOD  108
                    SECONDS     MINUTES      HOURS       DAYS        YEARS
                    -----------------------------------------------------------
   TIME STEP LENGTH  86400.      1440.0      24.000      1.0000     2.73785E-03
 STRESS PERIOD TIME  86400.      1440.0      24.000      1.0000     2.73785E-03
         TOTAL TIME 9.33120E+06 1.55520E+05  2592.0      108.00     0.29569    


end timestep


start timestep kper="109" kstp="1" mode="normal"

 #Stressperiod Save Options

 BEGIN READING OUTPUT CONTROL FOR STRESS PERIOD 109
      ALL TIME STEPS WILL BE SAVED
      ALL TIME STEPS WILL BE SAVED

 END READING OUTPUT CONTROL FOR STRESS PERIOD 109


 PROCESSING STORAGE PERIOD DATA
 END PROCESSING STORAGE PERIOD DATA


 STRESS PERIOD 109 IS TRANSIENT


 REUSING DRNS FROM LAST STRESS PERIOD

 REUSING RIVS FROM LAST STRESS PERIOD

 REUSING RIVS FROM LAST STRESS PERIOD

 REUSING RCHS FROM LAST STRESS PERIOD
 UBDSV06 SAVING              DRN IN MODEL GWF_1            PACKAGE GWF_1           CONNECTED TO MODEL GWF_1            PACKAGE DRN_SYS1         ON UNIT   1018 AT TIME STEP      1, STRESS PERIOD    109
 UBDSV06 SAVING              RIV IN MODEL GWF_1            PACKAGE GWF_1           CONNECTED TO MODEL GWF_1            PACKAGE RIV_SYS1         ON UNIT   1018 AT TIME STEP      1, STRESS PERIOD    109
 UBDSV06 SAVING              RIV IN MODEL GWF_1            PACKAGE GWF_1           CONNECTED TO MODEL GWF_1            PACKAGE RIV_SYS2         ON UNIT   1018 AT TIME STEP      1, STRESS PERIOD    109

 HEAD WILL BE SAVED ON UNIT 1017 AT END OF TIME STEP    1, STRESS PERIOD  109


  VOLUME BUDGET FOR ENTIRE MODEL AT END OF TIME STEP    1, STRESS PERIOD 109
  ---------------------------------------------------------------------------------------------------

     CUMULATIVE VOLUME      L**3       RATES FOR THIS TIME STEP      L**3/T          PACKAGE NAME    
     ------------------                 ------------------------                     ----------------

           IN:                                      IN:
           ---                                      ---
              STO-SS =      226918.7710                STO-SS =          28.6583     STORAGE                          
                 DRN =           0.0000                   DRN =           0.0000     DRN_SYS1                         
                 RIV =       97899.4948                   RIV =        1266.7818     RIV_SYS1                         
                 RIV =           0.0000                   RIV =           0.0000     RIV_SYS2                         
                 RCH =           0.0000                   RCH =           0.0000     RCH_MSW                          

            TOTAL IN =      324818.2658              TOTAL IN =        1295.4401

          OUT:                                     OUT:
          ----                                     ----
              STO-SS =           0.0000                STO-SS =           0.0000     STORAGE                          
                 DRN =        6499.2535                   DRN =          10.2495     DRN_SYS1                         
                 RIV =      300208.1170                   RIV =        1243.6786     RIV_SYS1                         
                 RIV =       18111.1503                   RIV =          41.5151     RIV_SYS2                         
                 RCH =           0.0000                   RCH =           0.0000     RCH_MSW                          

           TOTAL OUT =      324818.5208             TOTAL OUT =        1295.4432

            IN - OUT =          -0.2549              IN - OUT =      -3.0850E-03

 PERCENT DISCREPANCY =          -0.00     PERCENT DISCREPANCY =          -0.00




         TIME SUMMARY AT END OF TIME STEP    1 IN STRESS PERIOD  109
                    SECONDS     MINUTES      HOURS       DAYS        YEARS
                    -----------------------------------------------------------
   TIME STEP LENGTH  86400.      1440.0      24.000      1.0000     2.73785E-03
 STRESS PERIOD TIME  86400.      1440.0      24.000      1.0000     2.73785E-03
         TOTAL TIME 9.41760E+06 1.56960E+05  2616.0      109.00     0.29843    


end timestep


start timestep kper="110" kstp="1" mode="normal"

 #Stressperiod Save Options

 BEGIN READING OUTPUT CONTROL FOR STRESS PERIOD 110
      ALL TIME STEPS WILL BE SAVED
      ALL TIME STEPS WILL BE SAVED

 END READING OUTPUT CONTROL FOR STRESS PERIOD 110


 PROCESSING STORAGE PERIOD DATA
 END PROCESSING STORAGE PERIOD DATA


 STRESS PERIOD 110 IS TRANSIENT


 REUSING DRNS FROM LAST STRESS PERIOD

 REUSING RIVS FROM LAST STRESS PERIOD

 REUSING RIVS FROM LAST STRESS PERIOD

 REUSING RCHS FROM LAST STRESS PERIOD
 UBDSV06 SAVING              DRN IN MODEL GWF_1            PACKAGE GWF_1           CONNECTED TO MODEL GWF_1            PACKAGE DRN_SYS1         ON UNIT   1018 AT TIME STEP      1, STRESS PERIOD    110
 UBDSV06 SAVING              RIV IN MODEL GWF_1            PACKAGE GWF_1           CONNECTED TO MODEL GWF_1            PACKAGE RIV_SYS1         ON UNIT   1018 AT TIME STEP      1, STRESS PERIOD    110
 UBDSV06 SAVING              RIV IN MODEL GWF_1            PACKAGE GWF_1           CONNECTED TO MODEL GWF_1            PACKAGE RIV_SYS2         ON UNIT   1018 AT TIME STEP      1, STRESS PERIOD    110

 HEAD WILL BE SAVED ON UNIT 1017 AT END OF TIME STEP    1, STRESS PERIOD  110


  VOLUME BUDGET FOR ENTIRE MODEL AT END OF TIME STEP    1, STRESS PERIOD 110
  ---------------------------------------------------------------------------------------------------

     CUMULATIVE VOLUME      L**3       RATES FOR THIS TIME STEP      L**3/T          PACKAGE NAME    
     ------------------                 ------------------------                     ----------------

           IN:                                      IN:
           ---                                      ---
              STO-SS =      226945.9306                STO-SS =          27.1596     STORAGE                          
                 DRN =           0.0000                   DRN =           0.0000     DRN_SYS1                         
                 RIV =       99166.7501                   RIV =        1267.2553     RIV_SYS1                         
                 RIV =           0.0000                   RIV =           0.0000     RIV_SYS2                         
                 RCH =           0.0000                   RCH =           0.0000     RCH_MSW                          

            TOTAL IN =      326112.6807              TOTAL IN =        1294.4149

          OUT:                                     OUT:
          ----                                     ----
              STO-SS =           0.0000                STO-SS =           0.0000     STORAGE                          
                 DRN =        6509.4548                   DRN =          10.2013     DRN_SYS1                         
                 RIV =      301450.9174                   RIV =        1242.8005     RIV_SYS1                         
                 RIV =       18152.5663                   RIV =          41.4160     RIV_SYS2                         
                 RCH =           0.0000                   RCH =           0.0000     RCH_MSW                          

           TOTAL OUT =      326112.9385             TOTAL OUT =        1294.4178

            IN - OUT =          -0.2579              IN - OUT =      -2.9232E-03

 PERCENT DISCREPANCY =          -0.00     PERCENT DISCREPANCY =          -0.00




         TIME SUMMARY AT END OF TIME STEP    1 IN STRESS PERIOD  110
                    SECONDS     MINUTES      HOURS       DAYS        YEARS
                    -----------------------------------------------------------
   TIME STEP LENGTH  86400.      1440.0      24.000      1.0000     2.73785E-03
 STRESS PERIOD TIME  86400.      1440.0      24.000      1.0000     2.73785E-03
         TOTAL TIME 9.50400E+06 1.58400E+05  2640.0      110.00     0.30116    


end timestep


start timestep kper="111" kstp="1" mode="normal"

 #Stressperiod Save Options

 BEGIN READING OUTPUT CONTROL FOR STRESS PERIOD 111
      ALL TIME STEPS WILL BE SAVED
      ALL TIME STEPS WILL BE SAVED

 END READING OUTPUT CONTROL FOR STRESS PERIOD 111


 PROCESSING STORAGE PERIOD DATA
 END PROCESSING STORAGE PERIOD DATA


 STRESS PERIOD 111 IS TRANSIENT


 REUSING DRNS FROM LAST STRESS PERIOD

 REUSING RIVS FROM LAST STRESS PERIOD

 REUSING RIVS FROM LAST STRESS PERIOD

 REUSING RCHS FROM LAST STRESS PERIOD
 UBDSV06 SAVING              DRN IN MODEL GWF_1            PACKAGE GWF_1           CONNECTED TO MODEL GWF_1            PACKAGE DRN_SYS1         ON UNIT   1018 AT TIME STEP      1, STRESS PERIOD    111
 UBDSV06 SAVING              RIV IN MODEL GWF_1            PACKAGE GWF_1           CONNECTED TO MODEL GWF_1            PACKAGE RIV_SYS1         ON UNIT   1018 AT TIME STEP      1, STRESS PERIOD    111
 UBDSV06 SAVING              RIV IN MODEL GWF_1            PACKAGE GWF_1           CONNECTED TO MODEL GWF_1            PACKAGE RIV_SYS2         ON UNIT   1018 AT TIME STEP      1, STRESS PERIOD    111

 HEAD WILL BE SAVED ON UNIT 1017 AT END OF TIME STEP    1, STRESS PERIOD  111


  VOLUME BUDGET FOR ENTIRE MODEL AT END OF TIME STEP    1, STRESS PERIOD 111
  ---------------------------------------------------------------------------------------------------

     CUMULATIVE VOLUME      L**3       RATES FOR THIS TIME STEP      L**3/T          PACKAGE NAME    
     ------------------                 ------------------------                     ----------------

           IN:                                      IN:
           ---                                      ---
              STO-SS =      226971.6698                STO-SS =          25.7392     STORAGE                          
                 DRN =           0.0000                   DRN =           0.0000     DRN_SYS1                         
                 RIV =      100434.4541                   RIV =        1267.7040     RIV_SYS1                         
                 RIV =           0.0000                   RIV =           0.0000     RIV_SYS2                         
                 RCH =           0.0000                   RCH =           0.0000     RCH_MSW                          

            TOTAL IN =      327406.1240              TOTAL IN =        1293.4433

          OUT:                                     OUT:
          ----                                     ----
              STO-SS =           0.0000                STO-SS =           0.0000     STORAGE                          
                 DRN =        6519.6104                   DRN =          10.1556     DRN_SYS1                         
                 RIV =      302692.8857                   RIV =        1241.9683     RIV_SYS1                         
                 RIV =       18193.8885                   RIV =          41.3222     RIV_SYS2                         
                 RCH =           0.0000                   RCH =           0.0000     RCH_MSW                          

           TOTAL OUT =      327406.3846             TOTAL OUT =        1293.4460

            IN - OUT =          -0.2606              IN - OUT =      -2.7698E-03

 PERCENT DISCREPANCY =          -0.00     PERCENT DISCREPANCY =          -0.00




         TIME SUMMARY AT END OF TIME STEP    1 IN STRESS PERIOD  111
                    SECONDS     MINUTES      HOURS       DAYS        YEARS
                    -----------------------------------------------------------
   TIME STEP LENGTH  86400.      1440.0      24.000      1.0000     2.73785E-03
 STRESS PERIOD TIME  86400.      1440.0      24.000      1.0000     2.73785E-03
         TOTAL TIME 9.59040E+06 1.59840E+05  2664.0      111.00     0.30390    


end timestep


start timestep kper="112" kstp="1" mode="normal"

 #Stressperiod Save Options

 BEGIN READING OUTPUT CONTROL FOR STRESS PERIOD 112
      ALL TIME STEPS WILL BE SAVED
      ALL TIME STEPS WILL BE SAVED

 END READING OUTPUT CONTROL FOR STRESS PERIOD 112


 PROCESSING STORAGE PERIOD DATA
 END PROCESSING STORAGE PERIOD DATA


 STRESS PERIOD 112 IS TRANSIENT


 REUSING DRNS FROM LAST STRESS PERIOD

 REUSING RIVS FROM LAST STRESS PERIOD

 REUSING RIVS FROM LAST STRESS PERIOD

 REUSING RCHS FROM LAST STRESS PERIOD
 UBDSV06 SAVING              DRN IN MODEL GWF_1            PACKAGE GWF_1           CONNECTED TO MODEL GWF_1            PACKAGE DRN_SYS1         ON UNIT   1018 AT TIME STEP      1, STRESS PERIOD    112
 UBDSV06 SAVING              RIV IN MODEL GWF_1            PACKAGE GWF_1           CONNECTED TO MODEL GWF_1            PACKAGE RIV_SYS1         ON UNIT   1018 AT TIME STEP      1, STRESS PERIOD    112
 UBDSV06 SAVING              RIV IN MODEL GWF_1            PACKAGE GWF_1           CONNECTED TO MODEL GWF_1            PACKAGE RIV_SYS2         ON UNIT   1018 AT TIME STEP      1, STRESS PERIOD    112

 HEAD WILL BE SAVED ON UNIT 1017 AT END OF TIME STEP    1, STRESS PERIOD  112


  VOLUME BUDGET FOR ENTIRE MODEL AT END OF TIME STEP    1, STRESS PERIOD 112
  ---------------------------------------------------------------------------------------------------

     CUMULATIVE VOLUME      L**3       RATES FOR THIS TIME STEP      L**3/T          PACKAGE NAME    
     ------------------                 ------------------------                     ----------------

           IN:                                      IN:
           ---                                      ---
              STO-SS =      226996.0631                STO-SS =          24.3932     STORAGE                          
                 DRN =           0.0000                   DRN =           0.0000     DRN_SYS1                         
                 RIV =      101702.5834                   RIV =        1268.1293     RIV_SYS1                         
                 RIV =           0.0000                   RIV =           0.0000     RIV_SYS2                         
                 RCH =           0.0000                   RCH =           0.0000     RCH_MSW                          

            TOTAL IN =      328698.6465              TOTAL IN =        1292.5225

          OUT:                                     OUT:
          ----                                     ----
              STO-SS =           0.0000                STO-SS =           0.0000     STORAGE                          
                 DRN =        6529.7228                   DRN =          10.1123     DRN_SYS1                         
                 RIV =      303934.0652                   RIV =        1241.1796     RIV_SYS1                         
                 RIV =       18235.1218                   RIV =          41.2333     RIV_SYS2                         
                 RCH =           0.0000                   RCH =           0.0000     RCH_MSW                          

           TOTAL OUT =      328698.9097             TOTAL OUT =        1292.5252

            IN - OUT =          -0.2633              IN - OUT =      -2.6246E-03

 PERCENT DISCREPANCY =          -0.00     PERCENT DISCREPANCY =          -0.00




         TIME SUMMARY AT END OF TIME STEP    1 IN STRESS PERIOD  112
                    SECONDS     MINUTES      HOURS       DAYS        YEARS
                    -----------------------------------------------------------
   TIME STEP LENGTH  86400.      1440.0      24.000      1.0000     2.73785E-03
 STRESS PERIOD TIME  86400.      1440.0      24.000      1.0000     2.73785E-03
         TOTAL TIME 9.67680E+06 1.61280E+05  2688.0      112.00     0.30664    


end timestep


start timestep kper="113" kstp="1" mode="normal"

 #Stressperiod Save Options

 BEGIN READING OUTPUT CONTROL FOR STRESS PERIOD 113
      ALL TIME STEPS WILL BE SAVED
      ALL TIME STEPS WILL BE SAVED

 END READING OUTPUT CONTROL FOR STRESS PERIOD 113


 PROCESSING STORAGE PERIOD DATA
 END PROCESSING STORAGE PERIOD DATA


 STRESS PERIOD 113 IS TRANSIENT


 REUSING DRNS FROM LAST STRESS PERIOD

 REUSING RIVS FROM LAST STRESS PERIOD

 REUSING RIVS FROM LAST STRESS PERIOD

 REUSING RCHS FROM LAST STRESS PERIOD
 UBDSV06 SAVING              DRN IN MODEL GWF_1            PACKAGE GWF_1           CONNECTED TO MODEL GWF_1            PACKAGE DRN_SYS1         ON UNIT   1018 AT TIME STEP      1, STRESS PERIOD    113
 UBDSV06 SAVING              RIV IN MODEL GWF_1            PACKAGE GWF_1           CONNECTED TO MODEL GWF_1            PACKAGE RIV_SYS1         ON UNIT   1018 AT TIME STEP      1, STRESS PERIOD    113
 UBDSV06 SAVING              RIV IN MODEL GWF_1            PACKAGE GWF_1           CONNECTED TO MODEL GWF_1            PACKAGE RIV_SYS2         ON UNIT   1018 AT TIME STEP      1, STRESS PERIOD    113

 HEAD WILL BE SAVED ON UNIT 1017 AT END OF TIME STEP    1, STRESS PERIOD  113


  VOLUME BUDGET FOR ENTIRE MODEL AT END OF TIME STEP    1, STRESS PERIOD 113
  ---------------------------------------------------------------------------------------------------

     CUMULATIVE VOLUME      L**3       RATES FOR THIS TIME STEP      L**3/T          PACKAGE NAME    
     ------------------                 ------------------------                     ----------------

           IN:                                      IN:
           ---                                      ---
              STO-SS =      227019.1807                STO-SS =          23.1176     STORAGE                          
                 DRN =           0.0000                   DRN =           0.0000     DRN_SYS1                         
                 RIV =      102971.1157                   RIV =        1268.5323     RIV_SYS1                         
                 RIV =           0.0000                   RIV =           0.0000     RIV_SYS2                         
                 RCH =           0.0000                   RCH =           0.0000     RCH_MSW                          

            TOTAL IN =      329990.2964              TOTAL IN =        1291.6500

          OUT:                                     OUT:
          ----                                     ----
              STO-SS =           0.0000                STO-SS =           0.0000     STORAGE                          
                 DRN =        6539.7940                   DRN =          10.0712     DRN_SYS1                         
                 RIV =      305174.4973                   RIV =        1240.4321     RIV_SYS1                         
                 RIV =       18276.2709                   RIV =          41.1491     RIV_SYS2                         
                 RCH =           0.0000                   RCH =           0.0000     RCH_MSW                          

           TOTAL OUT =      329990.5622             TOTAL OUT =        1291.6524

            IN - OUT =          -0.2657              IN - OUT =      -2.4869E-03

 PERCENT DISCREPANCY =          -0.00     PERCENT DISCREPANCY =          -0.00




         TIME SUMMARY AT END OF TIME STEP    1 IN STRESS PERIOD  113
                    SECONDS     MINUTES      HOURS       DAYS        YEARS
                    -----------------------------------------------------------
   TIME STEP LENGTH  86400.      1440.0      24.000      1.0000     2.73785E-03
 STRESS PERIOD TIME  86400.      1440.0      24.000      1.0000     2.73785E-03
         TOTAL TIME 9.76320E+06 1.62720E+05  2712.0      113.00     0.30938    


end timestep


start timestep kper="114" kstp="1" mode="normal"

 #Stressperiod Save Options

 BEGIN READING OUTPUT CONTROL FOR STRESS PERIOD 114
      ALL TIME STEPS WILL BE SAVED
      ALL TIME STEPS WILL BE SAVED

 END READING OUTPUT CONTROL FOR STRESS PERIOD 114


 PROCESSING STORAGE PERIOD DATA
 END PROCESSING STORAGE PERIOD DATA


 STRESS PERIOD 114 IS TRANSIENT


 REUSING DRNS FROM LAST STRESS PERIOD

 REUSING RIVS FROM LAST STRESS PERIOD

 REUSING RIVS FROM LAST STRESS PERIOD

 REUSING RCHS FROM LAST STRESS PERIOD
 UBDSV06 SAVING              DRN IN MODEL GWF_1            PACKAGE GWF_1           CONNECTED TO MODEL GWF_1            PACKAGE DRN_SYS1         ON UNIT   1018 AT TIME STEP      1, STRESS PERIOD    114
 UBDSV06 SAVING              RIV IN MODEL GWF_1            PACKAGE GWF_1           CONNECTED TO MODEL GWF_1            PACKAGE RIV_SYS1         ON UNIT   1018 AT TIME STEP      1, STRESS PERIOD    114
 UBDSV06 SAVING              RIV IN MODEL GWF_1            PACKAGE GWF_1           CONNECTED TO MODEL GWF_1            PACKAGE RIV_SYS2         ON UNIT   1018 AT TIME STEP      1, STRESS PERIOD    114

 HEAD WILL BE SAVED ON UNIT 1017 AT END OF TIME STEP    1, STRESS PERIOD  114


  VOLUME BUDGET FOR ENTIRE MODEL AT END OF TIME STEP    1, STRESS PERIOD 114
  ---------------------------------------------------------------------------------------------------

     CUMULATIVE VOLUME      L**3       RATES FOR THIS TIME STEP      L**3/T          PACKAGE NAME    
     ------------------                 ------------------------                     ----------------

           IN:                                      IN:
           ---                                      ---
              STO-SS =      227041.0895                STO-SS =          21.9088     STORAGE                          
                 DRN =           0.0000                   DRN =           0.0000     DRN_SYS1                         
                 RIV =      104240.0300                   RIV =        1268.9143     RIV_SYS1                         
                 RIV =           0.0000                   RIV =           0.0000     RIV_SYS2                         
                 RCH =           0.0000                   RCH =           0.0000     RCH_MSW                          

            TOTAL IN =      331281.1195              TOTAL IN =        1290.8230

          OUT:                                     OUT:
          ----                                     ----
              STO-SS =           0.0000                STO-SS =           0.0000     STORAGE                          
                 DRN =        6549.8263                   DRN =          10.0323     DRN_SYS1                         
                 RIV =      306414.2211                   RIV =        1239.7237     RIV_SYS1                         
                 RIV =       18317.3402                   RIV =          41.0694     RIV_SYS2                         
                 RCH =           0.0000                   RCH =           0.0000     RCH_MSW                          

           TOTAL OUT =      331281.3876             TOTAL OUT =        1290.8254

            IN - OUT =          -0.2681              IN - OUT =      -2.3565E-03

 PERCENT DISCREPANCY =          -0.00     PERCENT DISCREPANCY =          -0.00




         TIME SUMMARY AT END OF TIME STEP    1 IN STRESS PERIOD  114
                    SECONDS     MINUTES      HOURS       DAYS        YEARS
                    -----------------------------------------------------------
   TIME STEP LENGTH  86400.      1440.0      24.000      1.0000     2.73785E-03
 STRESS PERIOD TIME  86400.      1440.0      24.000      1.0000     2.73785E-03
         TOTAL TIME 9.84960E+06 1.64160E+05  2736.0      114.00     0.31211    


end timestep


start timestep kper="115" kstp="1" mode="normal"

 #Stressperiod Save Options

 BEGIN READING OUTPUT CONTROL FOR STRESS PERIOD 115
      ALL TIME STEPS WILL BE SAVED
      ALL TIME STEPS WILL BE SAVED

 END READING OUTPUT CONTROL FOR STRESS PERIOD 115


 PROCESSING STORAGE PERIOD DATA
 END PROCESSING STORAGE PERIOD DATA


 STRESS PERIOD 115 IS TRANSIENT


 REUSING DRNS FROM LAST STRESS PERIOD

 REUSING RIVS FROM LAST STRESS PERIOD

 REUSING RIVS FROM LAST STRESS PERIOD

 REUSING RCHS FROM LAST STRESS PERIOD
 UBDSV06 SAVING              DRN IN MODEL GWF_1            PACKAGE GWF_1           CONNECTED TO MODEL GWF_1            PACKAGE DRN_SYS1         ON UNIT   1018 AT TIME STEP      1, STRESS PERIOD    115
 UBDSV06 SAVING              RIV IN MODEL GWF_1            PACKAGE GWF_1           CONNECTED TO MODEL GWF_1            PACKAGE RIV_SYS1         ON UNIT   1018 AT TIME STEP      1, STRESS PERIOD    115
 UBDSV06 SAVING              RIV IN MODEL GWF_1            PACKAGE GWF_1           CONNECTED TO MODEL GWF_1            PACKAGE RIV_SYS2         ON UNIT   1018 AT TIME STEP      1, STRESS PERIOD    115

 HEAD WILL BE SAVED ON UNIT 1017 AT END OF TIME STEP    1, STRESS PERIOD  115


  VOLUME BUDGET FOR ENTIRE MODEL AT END OF TIME STEP    1, STRESS PERIOD 115
  ---------------------------------------------------------------------------------------------------

     CUMULATIVE VOLUME      L**3       RATES FOR THIS TIME STEP      L**3/T          PACKAGE NAME    
     ------------------                 ------------------------                     ----------------

           IN:                                      IN:
           ---                                      ---
              STO-SS =      227061.8526                STO-SS =          20.7631     STORAGE                          
                 DRN =           0.0000                   DRN =           0.0000     DRN_SYS1                         
                 RIV =      105509.3063                   RIV =        1269.2762     RIV_SYS1                         
                 RIV =           0.0000                   RIV =           0.0000     RIV_SYS2                         
                 RCH =           0.0000                   RCH =           0.0000     RCH_MSW                          

            TOTAL IN =      332571.1589              TOTAL IN =        1290.0394

          OUT:                                     OUT:
          ----                                     ----
              STO-SS =           0.0000                STO-SS =           0.0000     STORAGE                          
                 DRN =        6559.8217                   DRN =           9.9954     DRN_SYS1                         
                 RIV =      307653.2734                   RIV =        1239.0524     RIV_SYS1                         
                 RIV =       18358.3341                   RIV =          40.9938     RIV_SYS2                         
                 RCH =           0.0000                   RCH =           0.0000     RCH_MSW                          

           TOTAL OUT =      332571.4292             TOTAL OUT =        1290.0416

            IN - OUT =          -0.2703              IN - OUT =      -2.2330E-03

 PERCENT DISCREPANCY =          -0.00     PERCENT DISCREPANCY =          -0.00




         TIME SUMMARY AT END OF TIME STEP    1 IN STRESS PERIOD  115
                    SECONDS     MINUTES      HOURS       DAYS        YEARS
                    -----------------------------------------------------------
   TIME STEP LENGTH  86400.      1440.0      24.000      1.0000     2.73785E-03
 STRESS PERIOD TIME  86400.      1440.0      24.000      1.0000     2.73785E-03
         TOTAL TIME 9.93600E+06 1.65600E+05  2760.0      115.00     0.31485    


end timestep


start timestep kper="116" kstp="1" mode="normal"

 #Stressperiod Save Options

 BEGIN READING OUTPUT CONTROL FOR STRESS PERIOD 116
      ALL TIME STEPS WILL BE SAVED
      ALL TIME STEPS WILL BE SAVED

 END READING OUTPUT CONTROL FOR STRESS PERIOD 116


 PROCESSING STORAGE PERIOD DATA
 END PROCESSING STORAGE PERIOD DATA


 STRESS PERIOD 116 IS TRANSIENT


 REUSING DRNS FROM LAST STRESS PERIOD

 REUSING RIVS FROM LAST STRESS PERIOD

 REUSING RIVS FROM LAST STRESS PERIOD

 REUSING RCHS FROM LAST STRESS PERIOD
 UBDSV06 SAVING              DRN IN MODEL GWF_1            PACKAGE GWF_1           CONNECTED TO MODEL GWF_1            PACKAGE DRN_SYS1         ON UNIT   1018 AT TIME STEP      1, STRESS PERIOD    116
 UBDSV06 SAVING              RIV IN MODEL GWF_1            PACKAGE GWF_1           CONNECTED TO MODEL GWF_1            PACKAGE RIV_SYS1         ON UNIT   1018 AT TIME STEP      1, STRESS PERIOD    116
 UBDSV06 SAVING              RIV IN MODEL GWF_1            PACKAGE GWF_1           CONNECTED TO MODEL GWF_1            PACKAGE RIV_SYS2         ON UNIT   1018 AT TIME STEP      1, STRESS PERIOD    116

 HEAD WILL BE SAVED ON UNIT 1017 AT END OF TIME STEP    1, STRESS PERIOD  116


  VOLUME BUDGET FOR ENTIRE MODEL AT END OF TIME STEP    1, STRESS PERIOD 116
  ---------------------------------------------------------------------------------------------------

     CUMULATIVE VOLUME      L**3       RATES FOR THIS TIME STEP      L**3/T          PACKAGE NAME    
     ------------------                 ------------------------                     ----------------

           IN:                                      IN:
           ---                                      ---
              STO-SS =      227081.5300                STO-SS =          19.6774     STORAGE                          
                 DRN =           0.0000                   DRN =           0.0000     DRN_SYS1                         
                 RIV =      106778.9256                   RIV =        1269.6193     RIV_SYS1                         
                 RIV =           0.0000                   RIV =           0.0000     RIV_SYS2                         
                 RCH =           0.0000                   RCH =           0.0000     RCH_MSW                          

            TOTAL IN =      333860.4556              TOTAL IN =        1289.2967

          OUT:                                     OUT:
          ----                                     ----
              STO-SS =           0.0000                STO-SS =           0.0000     STORAGE                          
                 DRN =        6569.7821                   DRN =           9.9604     DRN_SYS1                         
                 RIV =      308891.6896                   RIV =        1238.4161     RIV_SYS1                         
                 RIV =       18399.2564                   RIV =          40.9223     RIV_SYS2                         
                 RCH =           0.0000                   RCH =           0.0000     RCH_MSW                          

           TOTAL OUT =      333860.7280             TOTAL OUT =        1289.2988

            IN - OUT =          -0.2724              IN - OUT =      -2.1159E-03

 PERCENT DISCREPANCY =          -0.00     PERCENT DISCREPANCY =          -0.00




         TIME SUMMARY AT END OF TIME STEP    1 IN STRESS PERIOD  116
                    SECONDS     MINUTES      HOURS       DAYS        YEARS
                    -----------------------------------------------------------
   TIME STEP LENGTH  86400.      1440.0      24.000      1.0000     2.73785E-03
 STRESS PERIOD TIME  86400.      1440.0      24.000      1.0000     2.73785E-03
         TOTAL TIME 1.00224E+07 1.67040E+05  2784.0      116.00     0.31759    


end timestep


start timestep kper="117" kstp="1" mode="normal"

 #Stressperiod Save Options

 BEGIN READING OUTPUT CONTROL FOR STRESS PERIOD 117
      ALL TIME STEPS WILL BE SAVED
      ALL TIME STEPS WILL BE SAVED

 END READING OUTPUT CONTROL FOR STRESS PERIOD 117


 PROCESSING STORAGE PERIOD DATA
 END PROCESSING STORAGE PERIOD DATA


 STRESS PERIOD 117 IS TRANSIENT


 REUSING DRNS FROM LAST STRESS PERIOD

 REUSING RIVS FROM LAST STRESS PERIOD

 REUSING RIVS FROM LAST STRESS PERIOD

 REUSING RCHS FROM LAST STRESS PERIOD
 UBDSV06 SAVING              DRN IN MODEL GWF_1            PACKAGE GWF_1           CONNECTED TO MODEL GWF_1            PACKAGE DRN_SYS1         ON UNIT   1018 AT TIME STEP      1, STRESS PERIOD    117
 UBDSV06 SAVING              RIV IN MODEL GWF_1            PACKAGE GWF_1           CONNECTED TO MODEL GWF_1            PACKAGE RIV_SYS1         ON UNIT   1018 AT TIME STEP      1, STRESS PERIOD    117
 UBDSV06 SAVING              RIV IN MODEL GWF_1            PACKAGE GWF_1           CONNECTED TO MODEL GWF_1            PACKAGE RIV_SYS2         ON UNIT   1018 AT TIME STEP      1, STRESS PERIOD    117

 HEAD WILL BE SAVED ON UNIT 1017 AT END OF TIME STEP    1, STRESS PERIOD  117


  VOLUME BUDGET FOR ENTIRE MODEL AT END OF TIME STEP    1, STRESS PERIOD 117
  ---------------------------------------------------------------------------------------------------

     CUMULATIVE VOLUME      L**3       RATES FOR THIS TIME STEP      L**3/T          PACKAGE NAME    
     ------------------                 ------------------------                     ----------------

           IN:                                      IN:
           ---                                      ---
              STO-SS =      227100.1785                STO-SS =          18.6485     STORAGE                          
                 DRN =           0.0000                   DRN =           0.0000     DRN_SYS1                         
                 RIV =      108048.8699                   RIV =        1269.9444     RIV_SYS1                         
                 RIV =           0.0000                   RIV =           0.0000     RIV_SYS2                         
                 RCH =           0.0000                   RCH =           0.0000     RCH_MSW                          

            TOTAL IN =      335149.0485              TOTAL IN =        1288.5929

          OUT:                                     OUT:
          ----                                     ----
              STO-SS =           0.0000                STO-SS =           0.0000     STORAGE                          
                 DRN =        6579.7092                   DRN =           9.9272     DRN_SYS1                         
                 RIV =      310129.5027                   RIV =        1237.8132     RIV_SYS1                         
                 RIV =       18440.1110                   RIV =          40.8546     RIV_SYS2                         
                 RCH =           0.0000                   RCH =           0.0000     RCH_MSW                          

           TOTAL OUT =      335149.3229             TOTAL OUT =        1288.5949

            IN - OUT =          -0.2745              IN - OUT =      -2.0050E-03

 PERCENT DISCREPANCY =          -0.00     PERCENT DISCREPANCY =          -0.00




         TIME SUMMARY AT END OF TIME STEP    1 IN STRESS PERIOD  117
                    SECONDS     MINUTES      HOURS       DAYS        YEARS
                    -----------------------------------------------------------
   TIME STEP LENGTH  86400.      1440.0      24.000      1.0000     2.73785E-03
 STRESS PERIOD TIME  86400.      1440.0      24.000      1.0000     2.73785E-03
         TOTAL TIME 1.01088E+07 1.68480E+05  2808.0      117.00     0.32033    


end timestep


start timestep kper="118" kstp="1" mode="normal"

 #Stressperiod Save Options

 BEGIN READING OUTPUT CONTROL FOR STRESS PERIOD 118
      ALL TIME STEPS WILL BE SAVED
      ALL TIME STEPS WILL BE SAVED

 END READING OUTPUT CONTROL FOR STRESS PERIOD 118


 PROCESSING STORAGE PERIOD DATA
 END PROCESSING STORAGE PERIOD DATA


 STRESS PERIOD 118 IS TRANSIENT


 REUSING DRNS FROM LAST STRESS PERIOD

 REUSING RIVS FROM LAST STRESS PERIOD

 REUSING RIVS FROM LAST STRESS PERIOD

 REUSING RCHS FROM LAST STRESS PERIOD
 UBDSV06 SAVING              DRN IN MODEL GWF_1            PACKAGE GWF_1           CONNECTED TO MODEL GWF_1            PACKAGE DRN_SYS1         ON UNIT   1018 AT TIME STEP      1, STRESS PERIOD    118
 UBDSV06 SAVING              RIV IN MODEL GWF_1            PACKAGE GWF_1           CONNECTED TO MODEL GWF_1            PACKAGE RIV_SYS1         ON UNIT   1018 AT TIME STEP      1, STRESS PERIOD    118
 UBDSV06 SAVING              RIV IN MODEL GWF_1            PACKAGE GWF_1           CONNECTED TO MODEL GWF_1            PACKAGE RIV_SYS2         ON UNIT   1018 AT TIME STEP      1, STRESS PERIOD    118

 HEAD WILL BE SAVED ON UNIT 1017 AT END OF TIME STEP    1, STRESS PERIOD  118


  VOLUME BUDGET FOR ENTIRE MODEL AT END OF TIME STEP    1, STRESS PERIOD 118
  ---------------------------------------------------------------------------------------------------

     CUMULATIVE VOLUME      L**3       RATES FOR THIS TIME STEP      L**3/T          PACKAGE NAME    
     ------------------                 ------------------------                     ----------------

           IN:                                      IN:
           ---                                      ---
              STO-SS =      227117.8520                STO-SS =          17.6734     STORAGE                          
                 DRN =           0.0000                   DRN =           0.0000     DRN_SYS1                         
                 RIV =      109319.1224                   RIV =        1270.2525     RIV_SYS1                         
                 RIV =           0.0000                   RIV =           0.0000     RIV_SYS2                         
                 RCH =           0.0000                   RCH =           0.0000     RCH_MSW                          

            TOTAL IN =      336436.9744              TOTAL IN =        1287.9259

          OUT:                                     OUT:
          ----                                     ----
              STO-SS =           0.0000                STO-SS =           0.0000     STORAGE                          
                 DRN =        6589.6050                   DRN =           9.8957     DRN_SYS1                         
                 RIV =      311366.7445                   RIV =        1237.2417     RIV_SYS1                         
                 RIV =       18480.9013                   RIV =          40.7904     RIV_SYS2                         
                 RCH =           0.0000                   RCH =           0.0000     RCH_MSW                          

           TOTAL OUT =      336437.2508             TOTAL OUT =        1287.9278

            IN - OUT =          -0.2764              IN - OUT =      -1.8999E-03

 PERCENT DISCREPANCY =          -0.00     PERCENT DISCREPANCY =          -0.00




         TIME SUMMARY AT END OF TIME STEP    1 IN STRESS PERIOD  118
                    SECONDS     MINUTES      HOURS       DAYS        YEARS
                    -----------------------------------------------------------
   TIME STEP LENGTH  86400.      1440.0      24.000      1.0000     2.73785E-03
 STRESS PERIOD TIME  86400.      1440.0      24.000      1.0000     2.73785E-03
         TOTAL TIME 1.01952E+07 1.69920E+05  2832.0      118.00     0.32307    


end timestep


start timestep kper="119" kstp="1" mode="normal"

 #Stressperiod Save Options

 BEGIN READING OUTPUT CONTROL FOR STRESS PERIOD 119
      ALL TIME STEPS WILL BE SAVED
      ALL TIME STEPS WILL BE SAVED

 END READING OUTPUT CONTROL FOR STRESS PERIOD 119


 PROCESSING STORAGE PERIOD DATA
 END PROCESSING STORAGE PERIOD DATA


 STRESS PERIOD 119 IS TRANSIENT


 REUSING DRNS FROM LAST STRESS PERIOD

 REUSING RIVS FROM LAST STRESS PERIOD

 REUSING RIVS FROM LAST STRESS PERIOD

 REUSING RCHS FROM LAST STRESS PERIOD
 UBDSV06 SAVING              DRN IN MODEL GWF_1            PACKAGE GWF_1           CONNECTED TO MODEL GWF_1            PACKAGE DRN_SYS1         ON UNIT   1018 AT TIME STEP      1, STRESS PERIOD    119
 UBDSV06 SAVING              RIV IN MODEL GWF_1            PACKAGE GWF_1           CONNECTED TO MODEL GWF_1            PACKAGE RIV_SYS1         ON UNIT   1018 AT TIME STEP      1, STRESS PERIOD    119
 UBDSV06 SAVING              RIV IN MODEL GWF_1            PACKAGE GWF_1           CONNECTED TO MODEL GWF_1            PACKAGE RIV_SYS2         ON UNIT   1018 AT TIME STEP      1, STRESS PERIOD    119

 HEAD WILL BE SAVED ON UNIT 1017 AT END OF TIME STEP    1, STRESS PERIOD  119


  VOLUME BUDGET FOR ENTIRE MODEL AT END OF TIME STEP    1, STRESS PERIOD 119
  ---------------------------------------------------------------------------------------------------

     CUMULATIVE VOLUME      L**3       RATES FOR THIS TIME STEP      L**3/T          PACKAGE NAME    
     ------------------                 ------------------------                     ----------------

           IN:                                      IN:
           ---                                      ---
              STO-SS =      227134.6013                STO-SS =          16.7494     STORAGE                          
                 DRN =           0.0000                   DRN =           0.0000     DRN_SYS1                         
                 RIV =      110589.6669                   RIV =        1270.5445     RIV_SYS1                         
                 RIV =           0.0000                   RIV =           0.0000     RIV_SYS2                         
                 RCH =           0.0000                   RCH =           0.0000     RCH_MSW                          

            TOTAL IN =      337724.2682              TOTAL IN =        1287.2938

          OUT:                                     OUT:
          ----                                     ----
              STO-SS =           0.0000                STO-SS =           0.0000     STORAGE                          
                 DRN =        6599.4709                   DRN =           9.8659     DRN_SYS1                         
                 RIV =      312603.4446                   RIV =        1236.7001     RIV_SYS1                         
                 RIV =       18521.6309                   RIV =          40.7296     RIV_SYS2                         
                 RCH =           0.0000                   RCH =           0.0000     RCH_MSW                          

           TOTAL OUT =      337724.5464             TOTAL OUT =        1287.2956

            IN - OUT =          -0.2782              IN - OUT =      -1.8003E-03

 PERCENT DISCREPANCY =          -0.00     PERCENT DISCREPANCY =          -0.00




         TIME SUMMARY AT END OF TIME STEP    1 IN STRESS PERIOD  119
                    SECONDS     MINUTES      HOURS       DAYS        YEARS
                    -----------------------------------------------------------
   TIME STEP LENGTH  86400.      1440.0      24.000      1.0000     2.73785E-03
 STRESS PERIOD TIME  86400.      1440.0      24.000      1.0000     2.73785E-03
         TOTAL TIME 1.02816E+07 1.71360E+05  2856.0      119.00     0.32580    


end timestep


start timestep kper="120" kstp="1" mode="normal"

 #Stressperiod Save Options

 BEGIN READING OUTPUT CONTROL FOR STRESS PERIOD 120
      ALL TIME STEPS WILL BE SAVED
      ALL TIME STEPS WILL BE SAVED

 END READING OUTPUT CONTROL FOR STRESS PERIOD 120


 PROCESSING STORAGE PERIOD DATA
 END PROCESSING STORAGE PERIOD DATA


 STRESS PERIOD 120 IS TRANSIENT


 REUSING DRNS FROM LAST STRESS PERIOD

 REUSING RIVS FROM LAST STRESS PERIOD

 REUSING RIVS FROM LAST STRESS PERIOD

 REUSING RCHS FROM LAST STRESS PERIOD
 UBDSV06 SAVING              DRN IN MODEL GWF_1            PACKAGE GWF_1           CONNECTED TO MODEL GWF_1            PACKAGE DRN_SYS1         ON UNIT   1018 AT TIME STEP      1, STRESS PERIOD    120
 UBDSV06 SAVING              RIV IN MODEL GWF_1            PACKAGE GWF_1           CONNECTED TO MODEL GWF_1            PACKAGE RIV_SYS1         ON UNIT   1018 AT TIME STEP      1, STRESS PERIOD    120
 UBDSV06 SAVING              RIV IN MODEL GWF_1            PACKAGE GWF_1           CONNECTED TO MODEL GWF_1            PACKAGE RIV_SYS2         ON UNIT   1018 AT TIME STEP      1, STRESS PERIOD    120

 HEAD WILL BE SAVED ON UNIT 1017 AT END OF TIME STEP    1, STRESS PERIOD  120


  VOLUME BUDGET FOR ENTIRE MODEL AT END OF TIME STEP    1, STRESS PERIOD 120
  ---------------------------------------------------------------------------------------------------

     CUMULATIVE VOLUME      L**3       RATES FOR THIS TIME STEP      L**3/T          PACKAGE NAME    
     ------------------                 ------------------------                     ----------------

           IN:                                      IN:
           ---                                      ---
              STO-SS =      227150.4749                STO-SS =          15.8736     STORAGE                          
                 DRN =           0.0000                   DRN =           0.0000     DRN_SYS1                         
                 RIV =      111860.4881                   RIV =        1270.8212     RIV_SYS1                         
                 RIV =           0.0000                   RIV =           0.0000     RIV_SYS2                         
                 RCH =           0.0000                   RCH =           0.0000     RCH_MSW                          

            TOTAL IN =      339010.9630              TOTAL IN =        1286.6948

          OUT:                                     OUT:
          ----                                     ----
              STO-SS =           0.0000                STO-SS =           0.0000     STORAGE                          
                 DRN =        6609.3085                   DRN =           9.8376     DRN_SYS1                         
                 RIV =      313839.6315                   RIV =        1236.1869     RIV_SYS1                         
                 RIV =       18562.3030                   RIV =          40.6720     RIV_SYS2                         
                 RCH =           0.0000                   RCH =           0.0000     RCH_MSW                          

           TOTAL OUT =      339011.2429             TOTAL OUT =        1286.6965

            IN - OUT =          -0.2799              IN - OUT =      -1.7059E-03

 PERCENT DISCREPANCY =          -0.00     PERCENT DISCREPANCY =          -0.00




         TIME SUMMARY AT END OF TIME STEP    1 IN STRESS PERIOD  120
                    SECONDS     MINUTES      HOURS       DAYS        YEARS
                    -----------------------------------------------------------
   TIME STEP LENGTH  86400.      1440.0      24.000      1.0000     2.73785E-03
 STRESS PERIOD TIME  86400.      1440.0      24.000      1.0000     2.73785E-03
         TOTAL TIME 1.03680E+07 1.72800E+05  2880.0      120.00     0.32854    


end timestep


start timestep kper="121" kstp="1" mode="normal"

 #Stressperiod Save Options

 BEGIN READING OUTPUT CONTROL FOR STRESS PERIOD 121
      ALL TIME STEPS WILL BE SAVED
      ALL TIME STEPS WILL BE SAVED

 END READING OUTPUT CONTROL FOR STRESS PERIOD 121


 PROCESSING STORAGE PERIOD DATA
 END PROCESSING STORAGE PERIOD DATA


 STRESS PERIOD 121 IS TRANSIENT


 REUSING DRNS FROM LAST STRESS PERIOD

 REUSING RIVS FROM LAST STRESS PERIOD

 REUSING RIVS FROM LAST STRESS PERIOD

 REUSING RCHS FROM LAST STRESS PERIOD
 UBDSV06 SAVING              DRN IN MODEL GWF_1            PACKAGE GWF_1           CONNECTED TO MODEL GWF_1            PACKAGE DRN_SYS1         ON UNIT   1018 AT TIME STEP      1, STRESS PERIOD    121
 UBDSV06 SAVING              RIV IN MODEL GWF_1            PACKAGE GWF_1           CONNECTED TO MODEL GWF_1            PACKAGE RIV_SYS1         ON UNIT   1018 AT TIME STEP      1, STRESS PERIOD    121
 UBDSV06 SAVING              RIV IN MODEL GWF_1            PACKAGE GWF_1           CONNECTED TO MODEL GWF_1            PACKAGE RIV_SYS2         ON UNIT   1018 AT TIME STEP      1, STRESS PERIOD    121

 HEAD WILL BE SAVED ON UNIT 1017 AT END OF TIME STEP    1, STRESS PERIOD  121


  VOLUME BUDGET FOR ENTIRE MODEL AT END OF TIME STEP    1, STRESS PERIOD 121
  ---------------------------------------------------------------------------------------------------

     CUMULATIVE VOLUME      L**3       RATES FOR THIS TIME STEP      L**3/T          PACKAGE NAME    
     ------------------                 ------------------------                     ----------------

           IN:                                      IN:
           ---                                      ---
              STO-SS =      227165.5186                STO-SS =          15.0437     STORAGE                          
                 DRN =           0.0000                   DRN =           0.0000     DRN_SYS1                         
                 RIV =      113131.5715                   RIV =        1271.0834     RIV_SYS1                         
                 RIV =           0.0000                   RIV =           0.0000     RIV_SYS2                         
                 RCH =           0.0000                   RCH =           0.0000     RCH_MSW                          

            TOTAL IN =      340297.0901              TOTAL IN =        1286.1271

          OUT:                                     OUT:
          ----                                     ----
              STO-SS =           0.0000                STO-SS =           0.0000     STORAGE                          
                 DRN =        6619.1193                   DRN =           9.8108     DRN_SYS1                         
                 RIV =      315075.3319                   RIV =        1235.7004     RIV_SYS1                         
                 RIV =       18602.9204                   RIV =          40.6175     RIV_SYS2                         
                 RCH =           0.0000                   RCH =           0.0000     RCH_MSW                          

           TOTAL OUT =      340297.3716             TOTAL OUT =        1286.1287

            IN - OUT =          -0.2815              IN - OUT =      -1.6165E-03

 PERCENT DISCREPANCY =          -0.00     PERCENT DISCREPANCY =          -0.00




         TIME SUMMARY AT END OF TIME STEP    1 IN STRESS PERIOD  121
                    SECONDS     MINUTES      HOURS       DAYS        YEARS
                    -----------------------------------------------------------
   TIME STEP LENGTH  86400.      1440.0      24.000      1.0000     2.73785E-03
 STRESS PERIOD TIME  86400.      1440.0      24.000      1.0000     2.73785E-03
         TOTAL TIME 1.04544E+07 1.74240E+05  2904.0      121.00     0.33128    


end timestep


start timestep kper="122" kstp="1" mode="normal"

 #Stressperiod Save Options

 BEGIN READING OUTPUT CONTROL FOR STRESS PERIOD 122
      ALL TIME STEPS WILL BE SAVED
      ALL TIME STEPS WILL BE SAVED

 END READING OUTPUT CONTROL FOR STRESS PERIOD 122


 PROCESSING STORAGE PERIOD DATA
 END PROCESSING STORAGE PERIOD DATA


 STRESS PERIOD 122 IS TRANSIENT


 REUSING DRNS FROM LAST STRESS PERIOD

 REUSING RIVS FROM LAST STRESS PERIOD

 REUSING RIVS FROM LAST STRESS PERIOD

 REUSING RCHS FROM LAST STRESS PERIOD
 UBDSV06 SAVING              DRN IN MODEL GWF_1            PACKAGE GWF_1           CONNECTED TO MODEL GWF_1            PACKAGE DRN_SYS1         ON UNIT   1018 AT TIME STEP      1, STRESS PERIOD    122
 UBDSV06 SAVING              RIV IN MODEL GWF_1            PACKAGE GWF_1           CONNECTED TO MODEL GWF_1            PACKAGE RIV_SYS1         ON UNIT   1018 AT TIME STEP      1, STRESS PERIOD    122
 UBDSV06 SAVING              RIV IN MODEL GWF_1            PACKAGE GWF_1           CONNECTED TO MODEL GWF_1            PACKAGE RIV_SYS2         ON UNIT   1018 AT TIME STEP      1, STRESS PERIOD    122

 HEAD WILL BE SAVED ON UNIT 1017 AT END OF TIME STEP    1, STRESS PERIOD  122


  VOLUME BUDGET FOR ENTIRE MODEL AT END OF TIME STEP    1, STRESS PERIOD 122
  ---------------------------------------------------------------------------------------------------

     CUMULATIVE VOLUME      L**3       RATES FOR THIS TIME STEP      L**3/T          PACKAGE NAME    
     ------------------                 ------------------------                     ----------------

           IN:                                      IN:
           ---                                      ---
              STO-SS =      227179.7758                STO-SS =          14.2571     STORAGE                          
                 DRN =           0.0000                   DRN =           0.0000     DRN_SYS1                         
                 RIV =      114402.9035                   RIV =        1271.3320     RIV_SYS1                         
                 RIV =           0.0000                   RIV =           0.0000     RIV_SYS2                         
                 RCH =           0.0000                   RCH =           0.0000     RCH_MSW                          

            TOTAL IN =      341582.6792              TOTAL IN =        1285.5891

          OUT:                                     OUT:
          ----                                     ----
              STO-SS =           0.0000                STO-SS =           0.0000     STORAGE                          
                 DRN =        6628.9046                   DRN =           9.7854     DRN_SYS1                         
                 RIV =      316310.5714                   RIV =        1235.2394     RIV_SYS1                         
                 RIV =       18643.4862                   RIV =          40.5658     RIV_SYS2                         
                 RCH =           0.0000                   RCH =           0.0000     RCH_MSW                          

           TOTAL OUT =      341582.9622             TOTAL OUT =        1285.5906

            IN - OUT =          -0.2830              IN - OUT =      -1.5318E-03

 PERCENT DISCREPANCY =          -0.00     PERCENT DISCREPANCY =          -0.00




         TIME SUMMARY AT END OF TIME STEP    1 IN STRESS PERIOD  122
                    SECONDS     MINUTES      HOURS       DAYS        YEARS
                    -----------------------------------------------------------
   TIME STEP LENGTH  86400.      1440.0      24.000      1.0000     2.73785E-03
 STRESS PERIOD TIME  86400.      1440.0      24.000      1.0000     2.73785E-03
         TOTAL TIME 1.05408E+07 1.75680E+05  2928.0      122.00     0.33402    


end timestep


start timestep kper="123" kstp="1" mode="normal"

 #Stressperiod Save Options

 BEGIN READING OUTPUT CONTROL FOR STRESS PERIOD 123
      ALL TIME STEPS WILL BE SAVED
      ALL TIME STEPS WILL BE SAVED

 END READING OUTPUT CONTROL FOR STRESS PERIOD 123


 PROCESSING STORAGE PERIOD DATA
 END PROCESSING STORAGE PERIOD DATA


 STRESS PERIOD 123 IS TRANSIENT


 REUSING DRNS FROM LAST STRESS PERIOD

 REUSING RIVS FROM LAST STRESS PERIOD

 REUSING RIVS FROM LAST STRESS PERIOD

 REUSING RCHS FROM LAST STRESS PERIOD
 UBDSV06 SAVING              DRN IN MODEL GWF_1            PACKAGE GWF_1           CONNECTED TO MODEL GWF_1            PACKAGE DRN_SYS1         ON UNIT   1018 AT TIME STEP      1, STRESS PERIOD    123
 UBDSV06 SAVING              RIV IN MODEL GWF_1            PACKAGE GWF_1           CONNECTED TO MODEL GWF_1            PACKAGE RIV_SYS1         ON UNIT   1018 AT TIME STEP      1, STRESS PERIOD    123
 UBDSV06 SAVING              RIV IN MODEL GWF_1            PACKAGE GWF_1           CONNECTED TO MODEL GWF_1            PACKAGE RIV_SYS2         ON UNIT   1018 AT TIME STEP      1, STRESS PERIOD    123

 HEAD WILL BE SAVED ON UNIT 1017 AT END OF TIME STEP    1, STRESS PERIOD  123


  VOLUME BUDGET FOR ENTIRE MODEL AT END OF TIME STEP    1, STRESS PERIOD 123
  ---------------------------------------------------------------------------------------------------

     CUMULATIVE VOLUME      L**3       RATES FOR THIS TIME STEP      L**3/T          PACKAGE NAME    
     ------------------                 ------------------------                     ----------------

           IN:                                      IN:
           ---                                      ---
              STO-SS =      227193.2875                STO-SS =          13.5117     STORAGE                          
                 DRN =           0.0000                   DRN =           0.0000     DRN_SYS1                         
                 RIV =      115674.4709                   RIV =        1271.5675     RIV_SYS1                         
                 RIV =           0.0000                   RIV =           0.0000     RIV_SYS2                         
                 RCH =           0.0000                   RCH =           0.0000     RCH_MSW                          

            TOTAL IN =      342867.7584              TOTAL IN =        1285.0792

          OUT:                                     OUT:
          ----                                     ----
              STO-SS =           0.0000                STO-SS =           0.0000     STORAGE                          
                 DRN =        6638.6659                   DRN =           9.7613     DRN_SYS1                         
                 RIV =      317545.3739                   RIV =        1234.8025     RIV_SYS1                         
                 RIV =       18684.0031                   RIV =          40.5169     RIV_SYS2                         
                 RCH =           0.0000                   RCH =           0.0000     RCH_MSW                          

           TOTAL OUT =      342868.0429             TOTAL OUT =        1285.0807

            IN - OUT =          -0.2845              IN - OUT =      -1.4515E-03

 PERCENT DISCREPANCY =          -0.00     PERCENT DISCREPANCY =          -0.00




         TIME SUMMARY AT END OF TIME STEP    1 IN STRESS PERIOD  123
                    SECONDS     MINUTES      HOURS       DAYS        YEARS
                    -----------------------------------------------------------
   TIME STEP LENGTH  86400.      1440.0      24.000      1.0000     2.73785E-03
 STRESS PERIOD TIME  86400.      1440.0      24.000      1.0000     2.73785E-03
         TOTAL TIME 1.06272E+07 1.77120E+05  2952.0      123.00     0.33676    


end timestep


start timestep kper="124" kstp="1" mode="normal"

 #Stressperiod Save Options

 BEGIN READING OUTPUT CONTROL FOR STRESS PERIOD 124
      ALL TIME STEPS WILL BE SAVED
      ALL TIME STEPS WILL BE SAVED

 END READING OUTPUT CONTROL FOR STRESS PERIOD 124


 PROCESSING STORAGE PERIOD DATA
 END PROCESSING STORAGE PERIOD DATA


 STRESS PERIOD 124 IS TRANSIENT


 REUSING DRNS FROM LAST STRESS PERIOD

 REUSING RIVS FROM LAST STRESS PERIOD

 REUSING RIVS FROM LAST STRESS PERIOD

 REUSING RCHS FROM LAST STRESS PERIOD
 UBDSV06 SAVING              DRN IN MODEL GWF_1            PACKAGE GWF_1           CONNECTED TO MODEL GWF_1            PACKAGE DRN_SYS1         ON UNIT   1018 AT TIME STEP      1, STRESS PERIOD    124
 UBDSV06 SAVING              RIV IN MODEL GWF_1            PACKAGE GWF_1           CONNECTED TO MODEL GWF_1            PACKAGE RIV_SYS1         ON UNIT   1018 AT TIME STEP      1, STRESS PERIOD    124
 UBDSV06 SAVING              RIV IN MODEL GWF_1            PACKAGE GWF_1           CONNECTED TO MODEL GWF_1            PACKAGE RIV_SYS2         ON UNIT   1018 AT TIME STEP      1, STRESS PERIOD    124

 HEAD WILL BE SAVED ON UNIT 1017 AT END OF TIME STEP    1, STRESS PERIOD  124


  VOLUME BUDGET FOR ENTIRE MODEL AT END OF TIME STEP    1, STRESS PERIOD 124
  ---------------------------------------------------------------------------------------------------

     CUMULATIVE VOLUME      L**3       RATES FOR THIS TIME STEP      L**3/T          PACKAGE NAME    
     ------------------                 ------------------------                     ----------------

           IN:                                      IN:
           ---                                      ---
              STO-SS =      227206.0928                STO-SS =          12.8053     STORAGE                          
                 DRN =           0.0000                   DRN =           0.0000     DRN_SYS1                         
                 RIV =      116946.2616                   RIV =        1271.7907     RIV_SYS1                         
                 RIV =           0.0000                   RIV =           0.0000     RIV_SYS2                         
                 RCH =           0.0000                   RCH =           0.0000     RCH_MSW                          

            TOTAL IN =      344152.3545              TOTAL IN =        1284.5960

          OUT:                                     OUT:
          ----                                     ----
              STO-SS =           0.0000                STO-SS =           0.0000     STORAGE                          
                 DRN =        6648.4043                   DRN =           9.7384     DRN_SYS1                         
                 RIV =      318779.7624                   RIV =        1234.3885     RIV_SYS1                         
                 RIV =       18724.4736                   RIV =          40.4705     RIV_SYS2                         
                 RCH =           0.0000                   RCH =           0.0000     RCH_MSW                          

           TOTAL OUT =      344152.6403             TOTAL OUT =        1284.5974

            IN - OUT =          -0.2858              IN - OUT =      -1.3755E-03

 PERCENT DISCREPANCY =          -0.00     PERCENT DISCREPANCY =          -0.00




         TIME SUMMARY AT END OF TIME STEP    1 IN STRESS PERIOD  124
                    SECONDS     MINUTES      HOURS       DAYS        YEARS
                    -----------------------------------------------------------
   TIME STEP LENGTH  86400.      1440.0      24.000      1.0000     2.73785E-03
 STRESS PERIOD TIME  86400.      1440.0      24.000      1.0000     2.73785E-03
         TOTAL TIME 1.07136E+07 1.78560E+05  2976.0      124.00     0.33949    


end timestep


start timestep kper="125" kstp="1" mode="normal"

 #Stressperiod Save Options

 BEGIN READING OUTPUT CONTROL FOR STRESS PERIOD 125
      ALL TIME STEPS WILL BE SAVED
      ALL TIME STEPS WILL BE SAVED

 END READING OUTPUT CONTROL FOR STRESS PERIOD 125


 PROCESSING STORAGE PERIOD DATA
 END PROCESSING STORAGE PERIOD DATA


 STRESS PERIOD 125 IS TRANSIENT


 REUSING DRNS FROM LAST STRESS PERIOD

 REUSING RIVS FROM LAST STRESS PERIOD

 REUSING RIVS FROM LAST STRESS PERIOD

 REUSING RCHS FROM LAST STRESS PERIOD
 UBDSV06 SAVING              DRN IN MODEL GWF_1            PACKAGE GWF_1           CONNECTED TO MODEL GWF_1            PACKAGE DRN_SYS1         ON UNIT   1018 AT TIME STEP      1, STRESS PERIOD    125
 UBDSV06 SAVING              RIV IN MODEL GWF_1            PACKAGE GWF_1           CONNECTED TO MODEL GWF_1            PACKAGE RIV_SYS1         ON UNIT   1018 AT TIME STEP      1, STRESS PERIOD    125
 UBDSV06 SAVING              RIV IN MODEL GWF_1            PACKAGE GWF_1           CONNECTED TO MODEL GWF_1            PACKAGE RIV_SYS2         ON UNIT   1018 AT TIME STEP      1, STRESS PERIOD    125

 HEAD WILL BE SAVED ON UNIT 1017 AT END OF TIME STEP    1, STRESS PERIOD  125


  VOLUME BUDGET FOR ENTIRE MODEL AT END OF TIME STEP    1, STRESS PERIOD 125
  ---------------------------------------------------------------------------------------------------

     CUMULATIVE VOLUME      L**3       RATES FOR THIS TIME STEP      L**3/T          PACKAGE NAME    
     ------------------                 ------------------------                     ----------------

           IN:                                      IN:
           ---                                      ---
              STO-SS =      227218.2287                STO-SS =          12.1359     STORAGE                          
                 DRN =           0.0000                   DRN =           0.0000     DRN_SYS1                         
                 RIV =      118218.2639                   RIV =        1272.0022     RIV_SYS1                         
                 RIV =           0.0000                   RIV =           0.0000     RIV_SYS2                         
                 RCH =           0.0000                   RCH =           0.0000     RCH_MSW                          

            TOTAL IN =      345436.4926              TOTAL IN =        1284.1381

          OUT:                                     OUT:
          ----                                     ----
              STO-SS =           0.0000                STO-SS =           0.0000     STORAGE                          
                 DRN =        6658.1210                   DRN =           9.7167     DRN_SYS1                         
                 RIV =      320013.7584                   RIV =        1233.9961     RIV_SYS1                         
                 RIV =       18764.9002                   RIV =          40.4266     RIV_SYS2                         
                 RCH =           0.0000                   RCH =           0.0000     RCH_MSW                          

           TOTAL OUT =      345436.7797             TOTAL OUT =        1284.1394

            IN - OUT =          -0.2871              IN - OUT =      -1.3034E-03

 PERCENT DISCREPANCY =          -0.00     PERCENT DISCREPANCY =          -0.00




         TIME SUMMARY AT END OF TIME STEP    1 IN STRESS PERIOD  125
                    SECONDS     MINUTES      HOURS       DAYS        YEARS
                    -----------------------------------------------------------
   TIME STEP LENGTH  86400.      1440.0      24.000      1.0000     2.73785E-03
 STRESS PERIOD TIME  86400.      1440.0      24.000      1.0000     2.73785E-03
         TOTAL TIME 1.08000E+07 1.80000E+05  3000.0      125.00     0.34223    


end timestep


start timestep kper="126" kstp="1" mode="normal"

 #Stressperiod Save Options

 BEGIN READING OUTPUT CONTROL FOR STRESS PERIOD 126
      ALL TIME STEPS WILL BE SAVED
      ALL TIME STEPS WILL BE SAVED

 END READING OUTPUT CONTROL FOR STRESS PERIOD 126


 PROCESSING STORAGE PERIOD DATA
 END PROCESSING STORAGE PERIOD DATA


 STRESS PERIOD 126 IS TRANSIENT


 REUSING DRNS FROM LAST STRESS PERIOD

 REUSING RIVS FROM LAST STRESS PERIOD

 REUSING RIVS FROM LAST STRESS PERIOD

 REUSING RCHS FROM LAST STRESS PERIOD
 UBDSV06 SAVING              DRN IN MODEL GWF_1            PACKAGE GWF_1           CONNECTED TO MODEL GWF_1            PACKAGE DRN_SYS1         ON UNIT   1018 AT TIME STEP      1, STRESS PERIOD    126
 UBDSV06 SAVING              RIV IN MODEL GWF_1            PACKAGE GWF_1           CONNECTED TO MODEL GWF_1            PACKAGE RIV_SYS1         ON UNIT   1018 AT TIME STEP      1, STRESS PERIOD    126
 UBDSV06 SAVING              RIV IN MODEL GWF_1            PACKAGE GWF_1           CONNECTED TO MODEL GWF_1            PACKAGE RIV_SYS2         ON UNIT   1018 AT TIME STEP      1, STRESS PERIOD    126

 HEAD WILL BE SAVED ON UNIT 1017 AT END OF TIME STEP    1, STRESS PERIOD  126


  VOLUME BUDGET FOR ENTIRE MODEL AT END OF TIME STEP    1, STRESS PERIOD 126
  ---------------------------------------------------------------------------------------------------

     CUMULATIVE VOLUME      L**3       RATES FOR THIS TIME STEP      L**3/T          PACKAGE NAME    
     ------------------                 ------------------------                     ----------------

           IN:                                      IN:
           ---                                      ---
              STO-SS =      227229.7301                STO-SS =          11.5014     STORAGE                          
                 DRN =           0.0000                   DRN =           0.0000     DRN_SYS1                         
                 RIV =      119490.4666                   RIV =        1272.2027     RIV_SYS1                         
                 RIV =           0.0000                   RIV =           0.0000     RIV_SYS2                         
                 RCH =           0.0000                   RCH =           0.0000     RCH_MSW                          

            TOTAL IN =      346720.1967              TOTAL IN =        1283.7041

          OUT:                                     OUT:
          ----                                     ----
              STO-SS =           0.0000                STO-SS =           0.0000     STORAGE                          
                 DRN =        6667.8173                   DRN =           9.6962     DRN_SYS1                         
                 RIV =      321247.3826                   RIV =        1233.6242     RIV_SYS1                         
                 RIV =       18805.2852                   RIV =          40.3850     RIV_SYS2                         
                 RCH =           0.0000                   RCH =           0.0000     RCH_MSW                          

           TOTAL OUT =      346720.4851             TOTAL OUT =        1283.7054

            IN - OUT =          -0.2884              IN - OUT =      -1.2351E-03

 PERCENT DISCREPANCY =          -0.00     PERCENT DISCREPANCY =          -0.00




         TIME SUMMARY AT END OF TIME STEP    1 IN STRESS PERIOD  126
                    SECONDS     MINUTES      HOURS       DAYS        YEARS
                    -----------------------------------------------------------
   TIME STEP LENGTH  86400.      1440.0      24.000      1.0000     2.73785E-03
 STRESS PERIOD TIME  86400.      1440.0      24.000      1.0000     2.73785E-03
         TOTAL TIME 1.08864E+07 1.81440E+05  3024.0      126.00     0.34497    


end timestep


start timestep kper="127" kstp="1" mode="normal"

 #Stressperiod Save Options

 BEGIN READING OUTPUT CONTROL FOR STRESS PERIOD 127
      ALL TIME STEPS WILL BE SAVED
      ALL TIME STEPS WILL BE SAVED

 END READING OUTPUT CONTROL FOR STRESS PERIOD 127


 PROCESSING STORAGE PERIOD DATA
 END PROCESSING STORAGE PERIOD DATA


 STRESS PERIOD 127 IS TRANSIENT


 REUSING DRNS FROM LAST STRESS PERIOD

 REUSING RIVS FROM LAST STRESS PERIOD

 REUSING RIVS FROM LAST STRESS PERIOD

 REUSING RCHS FROM LAST STRESS PERIOD
 UBDSV06 SAVING              DRN IN MODEL GWF_1            PACKAGE GWF_1           CONNECTED TO MODEL GWF_1            PACKAGE DRN_SYS1         ON UNIT   1018 AT TIME STEP      1, STRESS PERIOD    127
 UBDSV06 SAVING              RIV IN MODEL GWF_1            PACKAGE GWF_1           CONNECTED TO MODEL GWF_1            PACKAGE RIV_SYS1         ON UNIT   1018 AT TIME STEP      1, STRESS PERIOD    127
 UBDSV06 SAVING              RIV IN MODEL GWF_1            PACKAGE GWF_1           CONNECTED TO MODEL GWF_1            PACKAGE RIV_SYS2         ON UNIT   1018 AT TIME STEP      1, STRESS PERIOD    127

 HEAD WILL BE SAVED ON UNIT 1017 AT END OF TIME STEP    1, STRESS PERIOD  127


  VOLUME BUDGET FOR ENTIRE MODEL AT END OF TIME STEP    1, STRESS PERIOD 127
  ---------------------------------------------------------------------------------------------------

     CUMULATIVE VOLUME      L**3       RATES FOR THIS TIME STEP      L**3/T          PACKAGE NAME    
     ------------------                 ------------------------                     ----------------

           IN:                                      IN:
           ---                                      ---
              STO-SS =      227240.6302                STO-SS =          10.9001     STORAGE                          
                 DRN =           0.0000                   DRN =           0.0000     DRN_SYS1                         
                 RIV =      120762.8593                   RIV =        1272.3927     RIV_SYS1                         
                 RIV =           0.0000                   RIV =           0.0000     RIV_SYS2                         
                 RCH =           0.0000                   RCH =           0.0000     RCH_MSW                          

            TOTAL IN =      348003.4896              TOTAL IN =        1283.2929

          OUT:                                     OUT:
          ----                                     ----
              STO-SS =           0.0000                STO-SS =           0.0000     STORAGE                          
                 DRN =        6677.4940                   DRN =           9.6767     DRN_SYS1                         
                 RIV =      322480.6543                   RIV =        1233.2717     RIV_SYS1                         
                 RIV =       18845.6308                   RIV =          40.3456     RIV_SYS2                         
                 RCH =           0.0000                   RCH =           0.0000     RCH_MSW                          

           TOTAL OUT =      348003.7791             TOTAL OUT =        1283.2940

            IN - OUT =          -0.2895              IN - OUT =      -1.1704E-03

 PERCENT DISCREPANCY =          -0.00     PERCENT DISCREPANCY =          -0.00




         TIME SUMMARY AT END OF TIME STEP    1 IN STRESS PERIOD  127
                    SECONDS     MINUTES      HOURS       DAYS        YEARS
                    -----------------------------------------------------------
   TIME STEP LENGTH  86400.      1440.0      24.000      1.0000     2.73785E-03
 STRESS PERIOD TIME  86400.      1440.0      24.000      1.0000     2.73785E-03
         TOTAL TIME 1.09728E+07 1.82880E+05  3048.0      127.00     0.34771    


end timestep


start timestep kper="128" kstp="1" mode="normal"

 #Stressperiod Save Options

 BEGIN READING OUTPUT CONTROL FOR STRESS PERIOD 128
      ALL TIME STEPS WILL BE SAVED
      ALL TIME STEPS WILL BE SAVED

 END READING OUTPUT CONTROL FOR STRESS PERIOD 128


 PROCESSING STORAGE PERIOD DATA
 END PROCESSING STORAGE PERIOD DATA


 STRESS PERIOD 128 IS TRANSIENT


 REUSING DRNS FROM LAST STRESS PERIOD

 REUSING RIVS FROM LAST STRESS PERIOD

 REUSING RIVS FROM LAST STRESS PERIOD

 REUSING RCHS FROM LAST STRESS PERIOD
 UBDSV06 SAVING              DRN IN MODEL GWF_1            PACKAGE GWF_1           CONNECTED TO MODEL GWF_1            PACKAGE DRN_SYS1         ON UNIT   1018 AT TIME STEP      1, STRESS PERIOD    128
 UBDSV06 SAVING              RIV IN MODEL GWF_1            PACKAGE GWF_1           CONNECTED TO MODEL GWF_1            PACKAGE RIV_SYS1         ON UNIT   1018 AT TIME STEP      1, STRESS PERIOD    128
 UBDSV06 SAVING              RIV IN MODEL GWF_1            PACKAGE GWF_1           CONNECTED TO MODEL GWF_1            PACKAGE RIV_SYS2         ON UNIT   1018 AT TIME STEP      1, STRESS PERIOD    128

 HEAD WILL BE SAVED ON UNIT 1017 AT END OF TIME STEP    1, STRESS PERIOD  128


  VOLUME BUDGET FOR ENTIRE MODEL AT END OF TIME STEP    1, STRESS PERIOD 128
  ---------------------------------------------------------------------------------------------------

     CUMULATIVE VOLUME      L**3       RATES FOR THIS TIME STEP      L**3/T          PACKAGE NAME    
     ------------------                 ------------------------                     ----------------

           IN:                                      IN:
           ---                                      ---
              STO-SS =      227250.9605                STO-SS =          10.3303     STORAGE                          
                 DRN =           0.0000                   DRN =           0.0000     DRN_SYS1                         
                 RIV =      122035.4321                   RIV =        1272.5728     RIV_SYS1                         
                 RIV =           0.0000                   RIV =           0.0000     RIV_SYS2                         
                 RCH =           0.0000                   RCH =           0.0000     RCH_MSW                          

            TOTAL IN =      349286.3926              TOTAL IN =        1282.9031

          OUT:                                     OUT:
          ----                                     ----
              STO-SS =           0.0000                STO-SS =           0.0000     STORAGE                          
                 DRN =        6687.1523                   DRN =           9.6583     DRN_SYS1                         
                 RIV =      323713.5920                   RIV =        1232.9377     RIV_SYS1                         
                 RIV =       18885.9391                   RIV =          40.3083     RIV_SYS2                         
                 RCH =           0.0000                   RCH =           0.0000     RCH_MSW                          

           TOTAL OUT =      349286.6833             TOTAL OUT =        1282.9042

            IN - OUT =          -0.2907              IN - OUT =      -1.1091E-03

 PERCENT DISCREPANCY =          -0.00     PERCENT DISCREPANCY =          -0.00




         TIME SUMMARY AT END OF TIME STEP    1 IN STRESS PERIOD  128
                    SECONDS     MINUTES      HOURS       DAYS        YEARS
                    -----------------------------------------------------------
   TIME STEP LENGTH  86400.      1440.0      24.000      1.0000     2.73785E-03
 STRESS PERIOD TIME  86400.      1440.0      24.000      1.0000     2.73785E-03
         TOTAL TIME 1.10592E+07 1.84320E+05  3072.0      128.00     0.35044    


end timestep


start timestep kper="129" kstp="1" mode="normal"

 #Stressperiod Save Options

 BEGIN READING OUTPUT CONTROL FOR STRESS PERIOD 129
      ALL TIME STEPS WILL BE SAVED
      ALL TIME STEPS WILL BE SAVED

 END READING OUTPUT CONTROL FOR STRESS PERIOD 129


 PROCESSING STORAGE PERIOD DATA
 END PROCESSING STORAGE PERIOD DATA


 STRESS PERIOD 129 IS TRANSIENT


 REUSING DRNS FROM LAST STRESS PERIOD

 REUSING RIVS FROM LAST STRESS PERIOD

 REUSING RIVS FROM LAST STRESS PERIOD

 REUSING RCHS FROM LAST STRESS PERIOD
 UBDSV06 SAVING              DRN IN MODEL GWF_1            PACKAGE GWF_1           CONNECTED TO MODEL GWF_1            PACKAGE DRN_SYS1         ON UNIT   1018 AT TIME STEP      1, STRESS PERIOD    129
 UBDSV06 SAVING              RIV IN MODEL GWF_1            PACKAGE GWF_1           CONNECTED TO MODEL GWF_1            PACKAGE RIV_SYS1         ON UNIT   1018 AT TIME STEP      1, STRESS PERIOD    129
 UBDSV06 SAVING              RIV IN MODEL GWF_1            PACKAGE GWF_1           CONNECTED TO MODEL GWF_1            PACKAGE RIV_SYS2         ON UNIT   1018 AT TIME STEP      1, STRESS PERIOD    129

 HEAD WILL BE SAVED ON UNIT 1017 AT END OF TIME STEP    1, STRESS PERIOD  129


  VOLUME BUDGET FOR ENTIRE MODEL AT END OF TIME STEP    1, STRESS PERIOD 129
  ---------------------------------------------------------------------------------------------------

     CUMULATIVE VOLUME      L**3       RATES FOR THIS TIME STEP      L**3/T          PACKAGE NAME    
     ------------------                 ------------------------                     ----------------

           IN:                                      IN:
           ---                                      ---
              STO-SS =      227260.7508                STO-SS =           9.7903     STORAGE                          
                 DRN =           0.0000                   DRN =           0.0000     DRN_SYS1                         
                 RIV =      123308.1756                   RIV =        1272.7434     RIV_SYS1                         
                 RIV =           0.0000                   RIV =           0.0000     RIV_SYS2                         
                 RCH =           0.0000                   RCH =           0.0000     RCH_MSW                          

            TOTAL IN =      350568.9264              TOTAL IN =        1282.5337

          OUT:                                     OUT:
          ----                                     ----
              STO-SS =           0.0000                STO-SS =           0.0000     STORAGE                          
                 DRN =        6696.7931                   DRN =           9.6408     DRN_SYS1                         
                 RIV =      324946.2130                   RIV =        1232.6211     RIV_SYS1                         
                 RIV =       18926.2120                   RIV =          40.2729     RIV_SYS2                         
                 RCH =           0.0000                   RCH =           0.0000     RCH_MSW                          

           TOTAL OUT =      350569.2181             TOTAL OUT =        1282.5348

            IN - OUT =          -0.2917              IN - OUT =      -1.0510E-03

 PERCENT DISCREPANCY =          -0.00     PERCENT DISCREPANCY =          -0.00




         TIME SUMMARY AT END OF TIME STEP    1 IN STRESS PERIOD  129
                    SECONDS     MINUTES      HOURS       DAYS        YEARS
                    -----------------------------------------------------------
   TIME STEP LENGTH  86400.      1440.0      24.000      1.0000     2.73785E-03
 STRESS PERIOD TIME  86400.      1440.0      24.000      1.0000     2.73785E-03
         TOTAL TIME 1.11456E+07 1.85760E+05  3096.0      129.00     0.35318    


end timestep


start timestep kper="130" kstp="1" mode="normal"

 #Stressperiod Save Options

 BEGIN READING OUTPUT CONTROL FOR STRESS PERIOD 130
      ALL TIME STEPS WILL BE SAVED
      ALL TIME STEPS WILL BE SAVED

 END READING OUTPUT CONTROL FOR STRESS PERIOD 130


 PROCESSING STORAGE PERIOD DATA
 END PROCESSING STORAGE PERIOD DATA


 STRESS PERIOD 130 IS TRANSIENT


 REUSING DRNS FROM LAST STRESS PERIOD

 REUSING RIVS FROM LAST STRESS PERIOD

 REUSING RIVS FROM LAST STRESS PERIOD

 REUSING RCHS FROM LAST STRESS PERIOD
 UBDSV06 SAVING              DRN IN MODEL GWF_1            PACKAGE GWF_1           CONNECTED TO MODEL GWF_1            PACKAGE DRN_SYS1         ON UNIT   1018 AT TIME STEP      1, STRESS PERIOD    130
 UBDSV06 SAVING              RIV IN MODEL GWF_1            PACKAGE GWF_1           CONNECTED TO MODEL GWF_1            PACKAGE RIV_SYS1         ON UNIT   1018 AT TIME STEP      1, STRESS PERIOD    130
 UBDSV06 SAVING              RIV IN MODEL GWF_1            PACKAGE GWF_1           CONNECTED TO MODEL GWF_1            PACKAGE RIV_SYS2         ON UNIT   1018 AT TIME STEP      1, STRESS PERIOD    130

 HEAD WILL BE SAVED ON UNIT 1017 AT END OF TIME STEP    1, STRESS PERIOD  130


  VOLUME BUDGET FOR ENTIRE MODEL AT END OF TIME STEP    1, STRESS PERIOD 130
  ---------------------------------------------------------------------------------------------------

     CUMULATIVE VOLUME      L**3       RATES FOR THIS TIME STEP      L**3/T          PACKAGE NAME    
     ------------------                 ------------------------                     ----------------

           IN:                                      IN:
           ---                                      ---
              STO-SS =      227270.0292                STO-SS =           9.2785     STORAGE                          
                 DRN =           0.0000                   DRN =           0.0000     DRN_SYS1                         
                 RIV =      124581.0807                   RIV =        1272.9052     RIV_SYS1                         
                 RIV =           0.0000                   RIV =           0.0000     RIV_SYS2                         
                 RCH =           0.0000                   RCH =           0.0000     RCH_MSW                          

            TOTAL IN =      351851.1100              TOTAL IN =        1282.1836

          OUT:                                     OUT:
          ----                                     ----
              STO-SS =           0.0000                STO-SS =           0.0000     STORAGE                          
                 DRN =        6706.4172                   DRN =           9.6242     DRN_SYS1                         
                 RIV =      326178.5341                   RIV =        1232.3210     RIV_SYS1                         
                 RIV =       18966.4514                   RIV =          40.2394     RIV_SYS2                         
                 RCH =           0.0000                   RCH =           0.0000     RCH_MSW                          

           TOTAL OUT =      351851.4027             TOTAL OUT =        1282.1846

            IN - OUT =          -0.2927              IN - OUT =      -9.9598E-04

 PERCENT DISCREPANCY =          -0.00     PERCENT DISCREPANCY =          -0.00




         TIME SUMMARY AT END OF TIME STEP    1 IN STRESS PERIOD  130
                    SECONDS     MINUTES      HOURS       DAYS        YEARS
                    -----------------------------------------------------------
   TIME STEP LENGTH  86400.      1440.0      24.000      1.0000     2.73785E-03
 STRESS PERIOD TIME  86400.      1440.0      24.000      1.0000     2.73785E-03
         TOTAL TIME 1.12320E+07 1.87200E+05  3120.0      130.00     0.35592    


end timestep


start timestep kper="131" kstp="1" mode="normal"

 #Stressperiod Save Options

 BEGIN READING OUTPUT CONTROL FOR STRESS PERIOD 131
      ALL TIME STEPS WILL BE SAVED
      ALL TIME STEPS WILL BE SAVED

 END READING OUTPUT CONTROL FOR STRESS PERIOD 131


 PROCESSING STORAGE PERIOD DATA
 END PROCESSING STORAGE PERIOD DATA


 STRESS PERIOD 131 IS TRANSIENT


 REUSING DRNS FROM LAST STRESS PERIOD

 REUSING RIVS FROM LAST STRESS PERIOD

 REUSING RIVS FROM LAST STRESS PERIOD

 REUSING RCHS FROM LAST STRESS PERIOD
 UBDSV06 SAVING              DRN IN MODEL GWF_1            PACKAGE GWF_1           CONNECTED TO MODEL GWF_1            PACKAGE DRN_SYS1         ON UNIT   1018 AT TIME STEP      1, STRESS PERIOD    131
 UBDSV06 SAVING              RIV IN MODEL GWF_1            PACKAGE GWF_1           CONNECTED TO MODEL GWF_1            PACKAGE RIV_SYS1         ON UNIT   1018 AT TIME STEP      1, STRESS PERIOD    131
 UBDSV06 SAVING              RIV IN MODEL GWF_1            PACKAGE GWF_1           CONNECTED TO MODEL GWF_1            PACKAGE RIV_SYS2         ON UNIT   1018 AT TIME STEP      1, STRESS PERIOD    131

 HEAD WILL BE SAVED ON UNIT 1017 AT END OF TIME STEP    1, STRESS PERIOD  131


  VOLUME BUDGET FOR ENTIRE MODEL AT END OF TIME STEP    1, STRESS PERIOD 131
  ---------------------------------------------------------------------------------------------------

     CUMULATIVE VOLUME      L**3       RATES FOR THIS TIME STEP      L**3/T          PACKAGE NAME    
     ------------------                 ------------------------                     ----------------

           IN:                                      IN:
           ---                                      ---
              STO-SS =      227278.8227                STO-SS =           8.7934     STORAGE                          
                 DRN =           0.0000                   DRN =           0.0000     DRN_SYS1                         
                 RIV =      125854.1392                   RIV =        1273.0584     RIV_SYS1                         
                 RIV =           0.0000                   RIV =           0.0000     RIV_SYS2                         
                 RCH =           0.0000                   RCH =           0.0000     RCH_MSW                          

            TOTAL IN =      353132.9619              TOTAL IN =        1281.8519

          OUT:                                     OUT:
          ----                                     ----
              STO-SS =           0.0000                STO-SS =           0.0000     STORAGE                          
                 DRN =        6716.0257                   DRN =           9.6085     DRN_SYS1                         
                 RIV =      327410.5708                   RIV =        1232.0367     RIV_SYS1                         
                 RIV =       19006.6591                   RIV =          40.2077     RIV_SYS2                         
                 RCH =           0.0000                   RCH =           0.0000     RCH_MSW                          

           TOTAL OUT =      353133.2555             TOTAL OUT =        1281.8528

            IN - OUT =          -0.2936              IN - OUT =      -9.4382E-04

 PERCENT DISCREPANCY =          -0.00     PERCENT DISCREPANCY =          -0.00




         TIME SUMMARY AT END OF TIME STEP    1 IN STRESS PERIOD  131
                    SECONDS     MINUTES      HOURS       DAYS        YEARS
                    -----------------------------------------------------------
   TIME STEP LENGTH  86400.      1440.0      24.000      1.0000     2.73785E-03
 STRESS PERIOD TIME  86400.      1440.0      24.000      1.0000     2.73785E-03
         TOTAL TIME 1.13184E+07 1.88640E+05  3144.0      131.00     0.35866    


end timestep


start timestep kper="132" kstp="1" mode="normal"

 #Stressperiod Save Options

 BEGIN READING OUTPUT CONTROL FOR STRESS PERIOD 132
      ALL TIME STEPS WILL BE SAVED
      ALL TIME STEPS WILL BE SAVED

 END READING OUTPUT CONTROL FOR STRESS PERIOD 132


 PROCESSING STORAGE PERIOD DATA
 END PROCESSING STORAGE PERIOD DATA


 STRESS PERIOD 132 IS TRANSIENT


 REUSING DRNS FROM LAST STRESS PERIOD

 REUSING RIVS FROM LAST STRESS PERIOD

 REUSING RIVS FROM LAST STRESS PERIOD

 REUSING RCHS FROM LAST STRESS PERIOD
 UBDSV06 SAVING              DRN IN MODEL GWF_1            PACKAGE GWF_1           CONNECTED TO MODEL GWF_1            PACKAGE DRN_SYS1         ON UNIT   1018 AT TIME STEP      1, STRESS PERIOD    132
 UBDSV06 SAVING              RIV IN MODEL GWF_1            PACKAGE GWF_1           CONNECTED TO MODEL GWF_1            PACKAGE RIV_SYS1         ON UNIT   1018 AT TIME STEP      1, STRESS PERIOD    132
 UBDSV06 SAVING              RIV IN MODEL GWF_1            PACKAGE GWF_1           CONNECTED TO MODEL GWF_1            PACKAGE RIV_SYS2         ON UNIT   1018 AT TIME STEP      1, STRESS PERIOD    132

 HEAD WILL BE SAVED ON UNIT 1017 AT END OF TIME STEP    1, STRESS PERIOD  132


  VOLUME BUDGET FOR ENTIRE MODEL AT END OF TIME STEP    1, STRESS PERIOD 132
  ---------------------------------------------------------------------------------------------------

     CUMULATIVE VOLUME      L**3       RATES FOR THIS TIME STEP      L**3/T          PACKAGE NAME    
     ------------------                 ------------------------                     ----------------

           IN:                                      IN:
           ---                                      ---
              STO-SS =      227287.1565                STO-SS =           8.3338     STORAGE                          
                 DRN =           0.0000                   DRN =           0.0000     DRN_SYS1                         
                 RIV =      127127.3429                   RIV =        1273.2037     RIV_SYS1                         
                 RIV =           0.0000                   RIV =           0.0000     RIV_SYS2                         
                 RCH =           0.0000                   RCH =           0.0000     RCH_MSW                          

            TOTAL IN =      354414.4993              TOTAL IN =        1281.5375

          OUT:                                     OUT:
          ----                                     ----
              STO-SS =           0.0000                STO-SS =           0.0000     STORAGE                          
                 DRN =        6725.6192                   DRN =           9.5935     DRN_SYS1                         
                 RIV =      328642.3380                   RIV =        1231.7672     RIV_SYS1                         
                 RIV =       19046.8367                   RIV =          40.1776     RIV_SYS2                         
                 RCH =           0.0000                   RCH =           0.0000     RCH_MSW                          

           TOTAL OUT =      354414.7939             TOTAL OUT =        1281.5384

            IN - OUT =          -0.2945              IN - OUT =      -8.9439E-04

 PERCENT DISCREPANCY =          -0.00     PERCENT DISCREPANCY =          -0.00




         TIME SUMMARY AT END OF TIME STEP    1 IN STRESS PERIOD  132
                    SECONDS     MINUTES      HOURS       DAYS        YEARS
                    -----------------------------------------------------------
   TIME STEP LENGTH  86400.      1440.0      24.000      1.0000     2.73785E-03
 STRESS PERIOD TIME  86400.      1440.0      24.000      1.0000     2.73785E-03
         TOTAL TIME 1.14048E+07 1.90080E+05  3168.0      132.00     0.36140    


end timestep


start timestep kper="133" kstp="1" mode="normal"

 #Stressperiod Save Options

 BEGIN READING OUTPUT CONTROL FOR STRESS PERIOD 133
      ALL TIME STEPS WILL BE SAVED
      ALL TIME STEPS WILL BE SAVED

 END READING OUTPUT CONTROL FOR STRESS PERIOD 133


 PROCESSING STORAGE PERIOD DATA
 END PROCESSING STORAGE PERIOD DATA


 STRESS PERIOD 133 IS TRANSIENT


 REUSING DRNS FROM LAST STRESS PERIOD

 REUSING RIVS FROM LAST STRESS PERIOD

 REUSING RIVS FROM LAST STRESS PERIOD

 REUSING RCHS FROM LAST STRESS PERIOD
 UBDSV06 SAVING              DRN IN MODEL GWF_1            PACKAGE GWF_1           CONNECTED TO MODEL GWF_1            PACKAGE DRN_SYS1         ON UNIT   1018 AT TIME STEP      1, STRESS PERIOD    133
 UBDSV06 SAVING              RIV IN MODEL GWF_1            PACKAGE GWF_1           CONNECTED TO MODEL GWF_1            PACKAGE RIV_SYS1         ON UNIT   1018 AT TIME STEP      1, STRESS PERIOD    133
 UBDSV06 SAVING              RIV IN MODEL GWF_1            PACKAGE GWF_1           CONNECTED TO MODEL GWF_1            PACKAGE RIV_SYS2         ON UNIT   1018 AT TIME STEP      1, STRESS PERIOD    133

 HEAD WILL BE SAVED ON UNIT 1017 AT END OF TIME STEP    1, STRESS PERIOD  133


  VOLUME BUDGET FOR ENTIRE MODEL AT END OF TIME STEP    1, STRESS PERIOD 133
  ---------------------------------------------------------------------------------------------------

     CUMULATIVE VOLUME      L**3       RATES FOR THIS TIME STEP      L**3/T          PACKAGE NAME    
     ------------------                 ------------------------                     ----------------

           IN:                                      IN:
           ---                                      ---
              STO-SS =      227295.0546                STO-SS =           7.8981     STORAGE                          
                 DRN =           0.0000                   DRN =           0.0000     DRN_SYS1                         
                 RIV =      128400.6842                   RIV =        1273.3414     RIV_SYS1                         
                 RIV =           0.0000                   RIV =           0.0000     RIV_SYS2                         
                 RCH =           0.0000                   RCH =           0.0000     RCH_MSW                          

            TOTAL IN =      355695.7388              TOTAL IN =        1281.2395

          OUT:                                     OUT:
          ----                                     ----
              STO-SS =           0.0000                STO-SS =           0.0000     STORAGE                          
                 DRN =        6735.1986                   DRN =           9.5794     DRN_SYS1                         
                 RIV =      329873.8498                   RIV =        1231.5118     RIV_SYS1                         
                 RIV =       19086.9858                   RIV =          40.1491     RIV_SYS2                         
                 RCH =           0.0000                   RCH =           0.0000     RCH_MSW                          

           TOTAL OUT =      355696.0342             TOTAL OUT =        1281.2403

            IN - OUT =          -0.2954              IN - OUT =      -8.4756E-04

 PERCENT DISCREPANCY =          -0.00     PERCENT DISCREPANCY =          -0.00




         TIME SUMMARY AT END OF TIME STEP    1 IN STRESS PERIOD  133
                    SECONDS     MINUTES      HOURS       DAYS        YEARS
                    -----------------------------------------------------------
   TIME STEP LENGTH  86400.      1440.0      24.000      1.0000     2.73785E-03
 STRESS PERIOD TIME  86400.      1440.0      24.000      1.0000     2.73785E-03
         TOTAL TIME 1.14912E+07 1.91520E+05  3192.0      133.00     0.36413    


end timestep


start timestep kper="134" kstp="1" mode="normal"

 #Stressperiod Save Options

 BEGIN READING OUTPUT CONTROL FOR STRESS PERIOD 134
      ALL TIME STEPS WILL BE SAVED
      ALL TIME STEPS WILL BE SAVED

 END READING OUTPUT CONTROL FOR STRESS PERIOD 134


 PROCESSING STORAGE PERIOD DATA
 END PROCESSING STORAGE PERIOD DATA


 STRESS PERIOD 134 IS TRANSIENT


 REUSING DRNS FROM LAST STRESS PERIOD

 REUSING RIVS FROM LAST STRESS PERIOD

 REUSING RIVS FROM LAST STRESS PERIOD

 REUSING RCHS FROM LAST STRESS PERIOD
 UBDSV06 SAVING              DRN IN MODEL GWF_1            PACKAGE GWF_1           CONNECTED TO MODEL GWF_1            PACKAGE DRN_SYS1         ON UNIT   1018 AT TIME STEP      1, STRESS PERIOD    134
 UBDSV06 SAVING              RIV IN MODEL GWF_1            PACKAGE GWF_1           CONNECTED TO MODEL GWF_1            PACKAGE RIV_SYS1         ON UNIT   1018 AT TIME STEP      1, STRESS PERIOD    134
 UBDSV06 SAVING              RIV IN MODEL GWF_1            PACKAGE GWF_1           CONNECTED TO MODEL GWF_1            PACKAGE RIV_SYS2         ON UNIT   1018 AT TIME STEP      1, STRESS PERIOD    134

 HEAD WILL BE SAVED ON UNIT 1017 AT END OF TIME STEP    1, STRESS PERIOD  134


  VOLUME BUDGET FOR ENTIRE MODEL AT END OF TIME STEP    1, STRESS PERIOD 134
  ---------------------------------------------------------------------------------------------------

     CUMULATIVE VOLUME      L**3       RATES FOR THIS TIME STEP      L**3/T          PACKAGE NAME    
     ------------------                 ------------------------                     ----------------

           IN:                                      IN:
           ---                                      ---
              STO-SS =      227302.5399                STO-SS =           7.4853     STORAGE                          
                 DRN =           0.0000                   DRN =           0.0000     DRN_SYS1                         
                 RIV =      129674.1561                   RIV =        1273.4718     RIV_SYS1                         
                 RIV =           0.0000                   RIV =           0.0000     RIV_SYS2                         
                 RCH =           0.0000                   RCH =           0.0000     RCH_MSW                          

            TOTAL IN =      356976.6959              TOTAL IN =        1280.9571

          OUT:                                     OUT:
          ----                                     ----
              STO-SS =           0.0000                STO-SS =           0.0000     STORAGE                          
                 DRN =        6744.7646                   DRN =           9.5660     DRN_SYS1                         
                 RIV =      331105.1195                   RIV =        1231.2698     RIV_SYS1                         
                 RIV =       19127.1079                   RIV =          40.1222     RIV_SYS2                         
                 RCH =           0.0000                   RCH =           0.0000     RCH_MSW                          

           TOTAL OUT =      356976.9921             TOTAL OUT =        1280.9579

            IN - OUT =          -0.2962              IN - OUT =      -8.0317E-04

 PERCENT DISCREPANCY =          -0.00     PERCENT DISCREPANCY =          -0.00




         TIME SUMMARY AT END OF TIME STEP    1 IN STRESS PERIOD  134
                    SECONDS     MINUTES      HOURS       DAYS        YEARS
                    -----------------------------------------------------------
   TIME STEP LENGTH  86400.      1440.0      24.000      1.0000     2.73785E-03
 STRESS PERIOD TIME  86400.      1440.0      24.000      1.0000     2.73785E-03
         TOTAL TIME 1.15776E+07 1.92960E+05  3216.0      134.00     0.36687    


end timestep


start timestep kper="135" kstp="1" mode="normal"

 #Stressperiod Save Options

 BEGIN READING OUTPUT CONTROL FOR STRESS PERIOD 135
      ALL TIME STEPS WILL BE SAVED
      ALL TIME STEPS WILL BE SAVED

 END READING OUTPUT CONTROL FOR STRESS PERIOD 135


 PROCESSING STORAGE PERIOD DATA
 END PROCESSING STORAGE PERIOD DATA


 STRESS PERIOD 135 IS TRANSIENT


 REUSING DRNS FROM LAST STRESS PERIOD

 REUSING RIVS FROM LAST STRESS PERIOD

 REUSING RIVS FROM LAST STRESS PERIOD

 REUSING RCHS FROM LAST STRESS PERIOD
 UBDSV06 SAVING              DRN IN MODEL GWF_1            PACKAGE GWF_1           CONNECTED TO MODEL GWF_1            PACKAGE DRN_SYS1         ON UNIT   1018 AT TIME STEP      1, STRESS PERIOD    135
 UBDSV06 SAVING              RIV IN MODEL GWF_1            PACKAGE GWF_1           CONNECTED TO MODEL GWF_1            PACKAGE RIV_SYS1         ON UNIT   1018 AT TIME STEP      1, STRESS PERIOD    135
 UBDSV06 SAVING              RIV IN MODEL GWF_1            PACKAGE GWF_1           CONNECTED TO MODEL GWF_1            PACKAGE RIV_SYS2         ON UNIT   1018 AT TIME STEP      1, STRESS PERIOD    135

 HEAD WILL BE SAVED ON UNIT 1017 AT END OF TIME STEP    1, STRESS PERIOD  135


  VOLUME BUDGET FOR ENTIRE MODEL AT END OF TIME STEP    1, STRESS PERIOD 135
  ---------------------------------------------------------------------------------------------------

     CUMULATIVE VOLUME      L**3       RATES FOR THIS TIME STEP      L**3/T          PACKAGE NAME    
     ------------------                 ------------------------                     ----------------

           IN:                                      IN:
           ---                                      ---
              STO-SS =      227309.6300                STO-SS =           7.0902     STORAGE                          
                 DRN =           0.0000                   DRN =           0.0000     DRN_SYS1                         
                 RIV =      130947.7512                   RIV =        1273.5951     RIV_SYS1                         
                 RIV =           0.0000                   RIV =           0.0000     RIV_SYS2                         
                 RCH =           0.0000                   RCH =           0.0000     RCH_MSW                          

            TOTAL IN =      358257.3812              TOTAL IN =        1280.6853

          OUT:                                     OUT:
          ----                                     ----
              STO-SS =           0.0000                STO-SS =           0.0000     STORAGE                          
                 DRN =        6754.3180                   DRN =           9.5533     DRN_SYS1                         
                 RIV =      332336.1606                   RIV =        1231.0411     RIV_SYS1                         
                 RIV =       19167.2046                   RIV =          40.0966     RIV_SYS2                         
                 RCH =           0.0000                   RCH =           0.0000     RCH_MSW                          

           TOTAL OUT =      358257.6832             TOTAL OUT =        1280.6910

            IN - OUT =          -0.3019              IN - OUT =      -5.7327E-03

 PERCENT DISCREPANCY =          -0.00     PERCENT DISCREPANCY =          -0.00




         TIME SUMMARY AT END OF TIME STEP    1 IN STRESS PERIOD  135
                    SECONDS     MINUTES      HOURS       DAYS        YEARS
                    -----------------------------------------------------------
   TIME STEP LENGTH  86400.      1440.0      24.000      1.0000     2.73785E-03
 STRESS PERIOD TIME  86400.      1440.0      24.000      1.0000     2.73785E-03
         TOTAL TIME 1.16640E+07 1.94400E+05  3240.0      135.00     0.36961    


end timestep


start timestep kper="136" kstp="1" mode="normal"

 #Stressperiod Save Options

 BEGIN READING OUTPUT CONTROL FOR STRESS PERIOD 136
      ALL TIME STEPS WILL BE SAVED
      ALL TIME STEPS WILL BE SAVED

 END READING OUTPUT CONTROL FOR STRESS PERIOD 136


 PROCESSING STORAGE PERIOD DATA
 END PROCESSING STORAGE PERIOD DATA


 STRESS PERIOD 136 IS TRANSIENT


 REUSING DRNS FROM LAST STRESS PERIOD

 REUSING RIVS FROM LAST STRESS PERIOD

 REUSING RIVS FROM LAST STRESS PERIOD

 REUSING RCHS FROM LAST STRESS PERIOD
 UBDSV06 SAVING              DRN IN MODEL GWF_1            PACKAGE GWF_1           CONNECTED TO MODEL GWF_1            PACKAGE DRN_SYS1         ON UNIT   1018 AT TIME STEP      1, STRESS PERIOD    136
 UBDSV06 SAVING              RIV IN MODEL GWF_1            PACKAGE GWF_1           CONNECTED TO MODEL GWF_1            PACKAGE RIV_SYS1         ON UNIT   1018 AT TIME STEP      1, STRESS PERIOD    136
 UBDSV06 SAVING              RIV IN MODEL GWF_1            PACKAGE GWF_1           CONNECTED TO MODEL GWF_1            PACKAGE RIV_SYS2         ON UNIT   1018 AT TIME STEP      1, STRESS PERIOD    136

 HEAD WILL BE SAVED ON UNIT 1017 AT END OF TIME STEP    1, STRESS PERIOD  136


  VOLUME BUDGET FOR ENTIRE MODEL AT END OF TIME STEP    1, STRESS PERIOD 136
  ---------------------------------------------------------------------------------------------------

     CUMULATIVE VOLUME      L**3       RATES FOR THIS TIME STEP      L**3/T          PACKAGE NAME    
     ------------------                 ------------------------                     ----------------

           IN:                                      IN:
           ---                                      ---
              STO-SS =      227316.2807                STO-SS =           6.6507     STORAGE                          
                 DRN =           0.0000                   DRN =           0.0000     DRN_SYS1                         
                 RIV =      132221.4562                   RIV =        1273.7050     RIV_SYS1                         
                 RIV =           0.0000                   RIV =           0.0000     RIV_SYS2                         
                 RCH =           0.0000                   RCH =           0.0000     RCH_MSW                          

            TOTAL IN =      359537.7369              TOTAL IN =        1280.3557

          OUT:                                     OUT:
          ----                                     ----
              STO-SS =           0.0000                STO-SS =           0.0000     STORAGE                          
                 DRN =        6763.8599                   DRN =           9.5419     DRN_SYS1                         
                 RIV =      333567.0003                   RIV =        1230.8397     RIV_SYS1                         
                 RIV =       19207.2780                   RIV =          40.0734     RIV_SYS2                         
                 RCH =           0.0000                   RCH =           0.0000     RCH_MSW                          

           TOTAL OUT =      359538.1382             TOTAL OUT =        1280.4550

            IN - OUT =          -0.4012              IN - OUT =      -9.9313E-02

 PERCENT DISCREPANCY =          -0.00     PERCENT DISCREPANCY =          -0.01




         TIME SUMMARY AT END OF TIME STEP    1 IN STRESS PERIOD  136
                    SECONDS     MINUTES      HOURS       DAYS        YEARS
                    -----------------------------------------------------------
   TIME STEP LENGTH  86400.      1440.0      24.000      1.0000     2.73785E-03
 STRESS PERIOD TIME  86400.      1440.0      24.000      1.0000     2.73785E-03
         TOTAL TIME 1.17504E+07 1.95840E+05  3264.0      136.00     0.37235    


end timestep


start timestep kper="137" kstp="1" mode="normal"

 #Stressperiod Save Options

 BEGIN READING OUTPUT CONTROL FOR STRESS PERIOD 137
      ALL TIME STEPS WILL BE SAVED
      ALL TIME STEPS WILL BE SAVED

 END READING OUTPUT CONTROL FOR STRESS PERIOD 137


 PROCESSING STORAGE PERIOD DATA
 END PROCESSING STORAGE PERIOD DATA


 STRESS PERIOD 137 IS TRANSIENT


 REUSING DRNS FROM LAST STRESS PERIOD

 REUSING RIVS FROM LAST STRESS PERIOD

 REUSING RIVS FROM LAST STRESS PERIOD

 REUSING RCHS FROM LAST STRESS PERIOD
 UBDSV06 SAVING              DRN IN MODEL GWF_1            PACKAGE GWF_1           CONNECTED TO MODEL GWF_1            PACKAGE DRN_SYS1         ON UNIT   1018 AT TIME STEP      1, STRESS PERIOD    137
 UBDSV06 SAVING              RIV IN MODEL GWF_1            PACKAGE GWF_1           CONNECTED TO MODEL GWF_1            PACKAGE RIV_SYS1         ON UNIT   1018 AT TIME STEP      1, STRESS PERIOD    137
 UBDSV06 SAVING              RIV IN MODEL GWF_1            PACKAGE GWF_1           CONNECTED TO MODEL GWF_1            PACKAGE RIV_SYS2         ON UNIT   1018 AT TIME STEP      1, STRESS PERIOD    137

 HEAD WILL BE SAVED ON UNIT 1017 AT END OF TIME STEP    1, STRESS PERIOD  137


  VOLUME BUDGET FOR ENTIRE MODEL AT END OF TIME STEP    1, STRESS PERIOD 137
  ---------------------------------------------------------------------------------------------------

     CUMULATIVE VOLUME      L**3       RATES FOR THIS TIME STEP      L**3/T          PACKAGE NAME    
     ------------------                 ------------------------                     ----------------

           IN:                                      IN:
           ---                                      ---
              STO-SS =      227322.6102                STO-SS =           6.3295     STORAGE                          
                 DRN =           0.0000                   DRN =           0.0000     DRN_SYS1                         
                 RIV =      133495.2691                   RIV =        1273.8129     RIV_SYS1                         
                 RIV =           0.0000                   RIV =           0.0000     RIV_SYS2                         
                 RCH =           0.0000                   RCH =           0.0000     RCH_MSW                          

            TOTAL IN =      360817.8793              TOTAL IN =        1280.1424

          OUT:                                     OUT:
          ----                                     ----
              STO-SS =           0.0000                STO-SS =           0.0000     STORAGE                          
                 DRN =        6773.3907                   DRN =           9.5308     DRN_SYS1                         
                 RIV =      334797.6402                   RIV =        1230.6399     RIV_SYS1                         
                 RIV =       19247.3290                   RIV =          40.0510     RIV_SYS2                         
                 RCH =           0.0000                   RCH =           0.0000     RCH_MSW                          

           TOTAL OUT =      360818.3599             TOTAL OUT =        1280.2218

            IN - OUT =          -0.4806              IN - OUT =      -7.9378E-02

 PERCENT DISCREPANCY =          -0.00     PERCENT DISCREPANCY =          -0.01




         TIME SUMMARY AT END OF TIME STEP    1 IN STRESS PERIOD  137
                    SECONDS     MINUTES      HOURS       DAYS        YEARS
                    -----------------------------------------------------------
   TIME STEP LENGTH  86400.      1440.0      24.000      1.0000     2.73785E-03
 STRESS PERIOD TIME  86400.      1440.0      24.000      1.0000     2.73785E-03
         TOTAL TIME 1.18368E+07 1.97280E+05  3288.0      137.00     0.37509    


end timestep


start timestep kper="138" kstp="1" mode="normal"

 #Stressperiod Save Options

 BEGIN READING OUTPUT CONTROL FOR STRESS PERIOD 138
      ALL TIME STEPS WILL BE SAVED
      ALL TIME STEPS WILL BE SAVED

 END READING OUTPUT CONTROL FOR STRESS PERIOD 138


 PROCESSING STORAGE PERIOD DATA
 END PROCESSING STORAGE PERIOD DATA


 STRESS PERIOD 138 IS TRANSIENT


 REUSING DRNS FROM LAST STRESS PERIOD

 REUSING RIVS FROM LAST STRESS PERIOD

 REUSING RIVS FROM LAST STRESS PERIOD

 REUSING RCHS FROM LAST STRESS PERIOD
 UBDSV06 SAVING              DRN IN MODEL GWF_1            PACKAGE GWF_1           CONNECTED TO MODEL GWF_1            PACKAGE DRN_SYS1         ON UNIT   1018 AT TIME STEP      1, STRESS PERIOD    138
 UBDSV06 SAVING              RIV IN MODEL GWF_1            PACKAGE GWF_1           CONNECTED TO MODEL GWF_1            PACKAGE RIV_SYS1         ON UNIT   1018 AT TIME STEP      1, STRESS PERIOD    138
 UBDSV06 SAVING              RIV IN MODEL GWF_1            PACKAGE GWF_1           CONNECTED TO MODEL GWF_1            PACKAGE RIV_SYS2         ON UNIT   1018 AT TIME STEP      1, STRESS PERIOD    138

 HEAD WILL BE SAVED ON UNIT 1017 AT END OF TIME STEP    1, STRESS PERIOD  138


  VOLUME BUDGET FOR ENTIRE MODEL AT END OF TIME STEP    1, STRESS PERIOD 138
  ---------------------------------------------------------------------------------------------------

     CUMULATIVE VOLUME      L**3       RATES FOR THIS TIME STEP      L**3/T          PACKAGE NAME    
     ------------------                 ------------------------                     ----------------

           IN:                                      IN:
           ---                                      ---
              STO-SS =      227328.6217                STO-SS =           6.0115     STORAGE                          
                 DRN =           0.0000                   DRN =           0.0000     DRN_SYS1                         
                 RIV =      134769.1853                   RIV =        1273.9162     RIV_SYS1                         
                 RIV =           0.0000                   RIV =           0.0000     RIV_SYS2                         
                 RCH =           0.0000                   RCH =           0.0000     RCH_MSW                          

            TOTAL IN =      362097.8070              TOTAL IN =        1279.9277

          OUT:                                     OUT:
          ----                                     ----
              STO-SS =           0.0000                STO-SS =           0.0000     STORAGE                          
                 DRN =        6782.9110                   DRN =           9.5202     DRN_SYS1                         
                 RIV =      336028.0886                   RIV =        1230.4484     RIV_SYS1                         
                 RIV =       19287.3586                   RIV =          40.0296     RIV_SYS2                         
                 RCH =           0.0000                   RCH =           0.0000     RCH_MSW                          

           TOTAL OUT =      362098.3582             TOTAL OUT =        1279.9982

            IN - OUT =          -0.5512              IN - OUT =      -7.0580E-02

 PERCENT DISCREPANCY =          -0.00     PERCENT DISCREPANCY =          -0.01




         TIME SUMMARY AT END OF TIME STEP    1 IN STRESS PERIOD  138
                    SECONDS     MINUTES      HOURS       DAYS        YEARS
                    -----------------------------------------------------------
   TIME STEP LENGTH  86400.      1440.0      24.000      1.0000     2.73785E-03
 STRESS PERIOD TIME  86400.      1440.0      24.000      1.0000     2.73785E-03
         TOTAL TIME 1.19232E+07 1.98720E+05  3312.0      138.00     0.37782    


end timestep


start timestep kper="139" kstp="1" mode="normal"

 #Stressperiod Save Options

 BEGIN READING OUTPUT CONTROL FOR STRESS PERIOD 139
      ALL TIME STEPS WILL BE SAVED
      ALL TIME STEPS WILL BE SAVED

 END READING OUTPUT CONTROL FOR STRESS PERIOD 139


 PROCESSING STORAGE PERIOD DATA
 END PROCESSING STORAGE PERIOD DATA


 STRESS PERIOD 139 IS TRANSIENT


 REUSING DRNS FROM LAST STRESS PERIOD

 REUSING RIVS FROM LAST STRESS PERIOD

 REUSING RIVS FROM LAST STRESS PERIOD

 REUSING RCHS FROM LAST STRESS PERIOD
 UBDSV06 SAVING              DRN IN MODEL GWF_1            PACKAGE GWF_1           CONNECTED TO MODEL GWF_1            PACKAGE DRN_SYS1         ON UNIT   1018 AT TIME STEP      1, STRESS PERIOD    139
 UBDSV06 SAVING              RIV IN MODEL GWF_1            PACKAGE GWF_1           CONNECTED TO MODEL GWF_1            PACKAGE RIV_SYS1         ON UNIT   1018 AT TIME STEP      1, STRESS PERIOD    139
 UBDSV06 SAVING              RIV IN MODEL GWF_1            PACKAGE GWF_1           CONNECTED TO MODEL GWF_1            PACKAGE RIV_SYS2         ON UNIT   1018 AT TIME STEP      1, STRESS PERIOD    139

 HEAD WILL BE SAVED ON UNIT 1017 AT END OF TIME STEP    1, STRESS PERIOD  139


  VOLUME BUDGET FOR ENTIRE MODEL AT END OF TIME STEP    1, STRESS PERIOD 139
  ---------------------------------------------------------------------------------------------------

     CUMULATIVE VOLUME      L**3       RATES FOR THIS TIME STEP      L**3/T          PACKAGE NAME    
     ------------------                 ------------------------                     ----------------

           IN:                                      IN:
           ---                                      ---
              STO-SS =      227334.3274                STO-SS =           5.7057     STORAGE                          
                 DRN =           0.0000                   DRN =           0.0000     DRN_SYS1                         
                 RIV =      136043.1999                   RIV =        1274.0146     RIV_SYS1                         
                 RIV =           0.0000                   RIV =           0.0000     RIV_SYS2                         
                 RCH =           0.0000                   RCH =           0.0000     RCH_MSW                          

            TOTAL IN =      363377.5272              TOTAL IN =        1279.7202

          OUT:                                     OUT:
          ----                                     ----
              STO-SS =           0.0000                STO-SS =           0.0000     STORAGE                          
                 DRN =        6792.4211                   DRN =           9.5101     DRN_SYS1                         
                 RIV =      337258.3543                   RIV =        1230.2657     RIV_SYS1                         
                 RIV =       19327.3677                   RIV =          40.0091     RIV_SYS2                         
                 RCH =           0.0000                   RCH =           0.0000     RCH_MSW                          

           TOTAL OUT =      363378.1431             TOTAL OUT =        1279.7849

            IN - OUT =          -0.6159              IN - OUT =      -6.4678E-02

 PERCENT DISCREPANCY =          -0.00     PERCENT DISCREPANCY =          -0.01




         TIME SUMMARY AT END OF TIME STEP    1 IN STRESS PERIOD  139
                    SECONDS     MINUTES      HOURS       DAYS        YEARS
                    -----------------------------------------------------------
   TIME STEP LENGTH  86400.      1440.0      24.000      1.0000     2.73785E-03
 STRESS PERIOD TIME  86400.      1440.0      24.000      1.0000     2.73785E-03
         TOTAL TIME 1.20096E+07 2.00160E+05  3336.0      139.00     0.38056    


end timestep


start timestep kper="140" kstp="1" mode="normal"

 #Stressperiod Save Options

 BEGIN READING OUTPUT CONTROL FOR STRESS PERIOD 140
      ALL TIME STEPS WILL BE SAVED
      ALL TIME STEPS WILL BE SAVED

 END READING OUTPUT CONTROL FOR STRESS PERIOD 140


 PROCESSING STORAGE PERIOD DATA
 END PROCESSING STORAGE PERIOD DATA


 STRESS PERIOD 140 IS TRANSIENT


 REUSING DRNS FROM LAST STRESS PERIOD

 REUSING RIVS FROM LAST STRESS PERIOD

 REUSING RIVS FROM LAST STRESS PERIOD

 REUSING RCHS FROM LAST STRESS PERIOD
 UBDSV06 SAVING              DRN IN MODEL GWF_1            PACKAGE GWF_1           CONNECTED TO MODEL GWF_1            PACKAGE DRN_SYS1         ON UNIT   1018 AT TIME STEP      1, STRESS PERIOD    140
 UBDSV06 SAVING              RIV IN MODEL GWF_1            PACKAGE GWF_1           CONNECTED TO MODEL GWF_1            PACKAGE RIV_SYS1         ON UNIT   1018 AT TIME STEP      1, STRESS PERIOD    140
 UBDSV06 SAVING              RIV IN MODEL GWF_1            PACKAGE GWF_1           CONNECTED TO MODEL GWF_1            PACKAGE RIV_SYS2         ON UNIT   1018 AT TIME STEP      1, STRESS PERIOD    140

 HEAD WILL BE SAVED ON UNIT 1017 AT END OF TIME STEP    1, STRESS PERIOD  140


  VOLUME BUDGET FOR ENTIRE MODEL AT END OF TIME STEP    1, STRESS PERIOD 140
  ---------------------------------------------------------------------------------------------------

     CUMULATIVE VOLUME      L**3       RATES FOR THIS TIME STEP      L**3/T          PACKAGE NAME    
     ------------------                 ------------------------                     ----------------

           IN:                                      IN:
           ---                                      ---
              STO-SS =      227339.7409                STO-SS =           5.4135     STORAGE                          
                 DRN =           0.0000                   DRN =           0.0000     DRN_SYS1                         
                 RIV =      137317.3080                   RIV =        1274.1081     RIV_SYS1                         
                 RIV =           0.0000                   RIV =           0.0000     RIV_SYS2                         
                 RCH =           0.0000                   RCH =           0.0000     RCH_MSW                          

            TOTAL IN =      364657.0489              TOTAL IN =        1279.5217

          OUT:                                     OUT:
          ----                                     ----
              STO-SS =           0.0000                STO-SS =           0.0000     STORAGE                          
                 DRN =        6801.9215                   DRN =           9.5005     DRN_SYS1                         
                 RIV =      338488.4459                   RIV =        1230.0916     RIV_SYS1                         
                 RIV =       19367.3573                   RIV =          39.9896     RIV_SYS2                         
                 RCH =           0.0000                   RCH =           0.0000     RCH_MSW                          

           TOTAL OUT =      364657.7247             TOTAL OUT =        1279.5817

            IN - OUT =          -0.6759              IN - OUT =      -6.0002E-02

 PERCENT DISCREPANCY =          -0.00     PERCENT DISCREPANCY =          -0.00




         TIME SUMMARY AT END OF TIME STEP    1 IN STRESS PERIOD  140
                    SECONDS     MINUTES      HOURS       DAYS        YEARS
                    -----------------------------------------------------------
   TIME STEP LENGTH  86400.      1440.0      24.000      1.0000     2.73785E-03
 STRESS PERIOD TIME  86400.      1440.0      24.000      1.0000     2.73785E-03
         TOTAL TIME 1.20960E+07 2.01600E+05  3360.0      140.00     0.38330    


end timestep


start timestep kper="141" kstp="1" mode="normal"

 #Stressperiod Save Options

 BEGIN READING OUTPUT CONTROL FOR STRESS PERIOD 141
      ALL TIME STEPS WILL BE SAVED
      ALL TIME STEPS WILL BE SAVED

 END READING OUTPUT CONTROL FOR STRESS PERIOD 141


 PROCESSING STORAGE PERIOD DATA
 END PROCESSING STORAGE PERIOD DATA


 STRESS PERIOD 141 IS TRANSIENT


 REUSING DRNS FROM LAST STRESS PERIOD

 REUSING RIVS FROM LAST STRESS PERIOD

 REUSING RIVS FROM LAST STRESS PERIOD

 REUSING RCHS FROM LAST STRESS PERIOD
 UBDSV06 SAVING              DRN IN MODEL GWF_1            PACKAGE GWF_1           CONNECTED TO MODEL GWF_1            PACKAGE DRN_SYS1         ON UNIT   1018 AT TIME STEP      1, STRESS PERIOD    141
 UBDSV06 SAVING              RIV IN MODEL GWF_1            PACKAGE GWF_1           CONNECTED TO MODEL GWF_1            PACKAGE RIV_SYS1         ON UNIT   1018 AT TIME STEP      1, STRESS PERIOD    141
 UBDSV06 SAVING              RIV IN MODEL GWF_1            PACKAGE GWF_1           CONNECTED TO MODEL GWF_1            PACKAGE RIV_SYS2         ON UNIT   1018 AT TIME STEP      1, STRESS PERIOD    141

 HEAD WILL BE SAVED ON UNIT 1017 AT END OF TIME STEP    1, STRESS PERIOD  141


  VOLUME BUDGET FOR ENTIRE MODEL AT END OF TIME STEP    1, STRESS PERIOD 141
  ---------------------------------------------------------------------------------------------------

     CUMULATIVE VOLUME      L**3       RATES FOR THIS TIME STEP      L**3/T          PACKAGE NAME    
     ------------------                 ------------------------                     ----------------

           IN:                                      IN:
           ---                                      ---
              STO-SS =      227344.8760                STO-SS =           5.1351     STORAGE                          
                 DRN =           0.0000                   DRN =           0.0000     DRN_SYS1                         
                 RIV =      138591.5050                   RIV =        1274.1970     RIV_SYS1                         
                 RIV =           0.0000                   RIV =           0.0000     RIV_SYS2                         
                 RCH =           0.0000                   RCH =           0.0000     RCH_MSW                          

            TOTAL IN =      365936.3810              TOTAL IN =        1279.3322

          OUT:                                     OUT:
          ----                                     ----
              STO-SS =           0.0000                STO-SS =           0.0000     STORAGE                          
                 DRN =        6811.4128                   DRN =           9.4913     DRN_SYS1                         
                 RIV =      339718.3718                   RIV =        1229.9258     RIV_SYS1                         
                 RIV =       19407.3283                   RIV =          39.9711     RIV_SYS2                         
                 RCH =           0.0000                   RCH =           0.0000     RCH_MSW                          

           TOTAL OUT =      365937.1129             TOTAL OUT =        1279.3882

            IN - OUT =          -0.7319              IN - OUT =      -5.6023E-02

 PERCENT DISCREPANCY =          -0.00     PERCENT DISCREPANCY =          -0.00




         TIME SUMMARY AT END OF TIME STEP    1 IN STRESS PERIOD  141
                    SECONDS     MINUTES      HOURS       DAYS        YEARS
                    -----------------------------------------------------------
   TIME STEP LENGTH  86400.      1440.0      24.000      1.0000     2.73785E-03
 STRESS PERIOD TIME  86400.      1440.0      24.000      1.0000     2.73785E-03
         TOTAL TIME 1.21824E+07 2.03040E+05  3384.0      141.00     0.38604    


end timestep


start timestep kper="142" kstp="1" mode="normal"

 #Stressperiod Save Options

 BEGIN READING OUTPUT CONTROL FOR STRESS PERIOD 142
      ALL TIME STEPS WILL BE SAVED
      ALL TIME STEPS WILL BE SAVED

 END READING OUTPUT CONTROL FOR STRESS PERIOD 142


 PROCESSING STORAGE PERIOD DATA
 END PROCESSING STORAGE PERIOD DATA


 STRESS PERIOD 142 IS TRANSIENT


 REUSING DRNS FROM LAST STRESS PERIOD

 REUSING RIVS FROM LAST STRESS PERIOD

 REUSING RIVS FROM LAST STRESS PERIOD

 REUSING RCHS FROM LAST STRESS PERIOD
 UBDSV06 SAVING              DRN IN MODEL GWF_1            PACKAGE GWF_1           CONNECTED TO MODEL GWF_1            PACKAGE DRN_SYS1         ON UNIT   1018 AT TIME STEP      1, STRESS PERIOD    142
 UBDSV06 SAVING              RIV IN MODEL GWF_1            PACKAGE GWF_1           CONNECTED TO MODEL GWF_1            PACKAGE RIV_SYS1         ON UNIT   1018 AT TIME STEP      1, STRESS PERIOD    142
 UBDSV06 SAVING              RIV IN MODEL GWF_1            PACKAGE GWF_1           CONNECTED TO MODEL GWF_1            PACKAGE RIV_SYS2         ON UNIT   1018 AT TIME STEP      1, STRESS PERIOD    142

 HEAD WILL BE SAVED ON UNIT 1017 AT END OF TIME STEP    1, STRESS PERIOD  142


  VOLUME BUDGET FOR ENTIRE MODEL AT END OF TIME STEP    1, STRESS PERIOD 142
  ---------------------------------------------------------------------------------------------------

     CUMULATIVE VOLUME      L**3       RATES FOR THIS TIME STEP      L**3/T          PACKAGE NAME    
     ------------------                 ------------------------                     ----------------

           IN:                                      IN:
           ---                                      ---
              STO-SS =      227349.7463                STO-SS =           4.8702     STORAGE                          
                 DRN =           0.0000                   DRN =           0.0000     DRN_SYS1                         
                 RIV =      139865.7865                   RIV =        1274.2815     RIV_SYS1                         
                 RIV =           0.0000                   RIV =           0.0000     RIV_SYS2                         
                 RCH =           0.0000                   RCH =           0.0000     RCH_MSW                          

            TOTAL IN =      367215.5328              TOTAL IN =        1279.1517

          OUT:                                     OUT:
          ----                                     ----
              STO-SS =           0.0000                STO-SS =           0.0000     STORAGE                          
                 DRN =        6820.8953                   DRN =           9.4825     DRN_SYS1                         
                 RIV =      340948.1400                   RIV =        1229.7682     RIV_SYS1                         
                 RIV =       19447.2819                   RIV =          39.9535     RIV_SYS2                         
                 RCH =           0.0000                   RCH =           0.0000     RCH_MSW                          

           TOTAL OUT =      367216.3172             TOTAL OUT =        1279.2042

            IN - OUT =          -0.7844              IN - OUT =      -5.2515E-02

 PERCENT DISCREPANCY =          -0.00     PERCENT DISCREPANCY =          -0.00




         TIME SUMMARY AT END OF TIME STEP    1 IN STRESS PERIOD  142
                    SECONDS     MINUTES      HOURS       DAYS        YEARS
                    -----------------------------------------------------------
   TIME STEP LENGTH  86400.      1440.0      24.000      1.0000     2.73785E-03
 STRESS PERIOD TIME  86400.      1440.0      24.000      1.0000     2.73785E-03
         TOTAL TIME 1.22688E+07 2.04480E+05  3408.0      142.00     0.38877    


end timestep


start timestep kper="143" kstp="1" mode="normal"

 #Stressperiod Save Options

 BEGIN READING OUTPUT CONTROL FOR STRESS PERIOD 143
      ALL TIME STEPS WILL BE SAVED
      ALL TIME STEPS WILL BE SAVED

 END READING OUTPUT CONTROL FOR STRESS PERIOD 143


 PROCESSING STORAGE PERIOD DATA
 END PROCESSING STORAGE PERIOD DATA


 STRESS PERIOD 143 IS TRANSIENT


 REUSING DRNS FROM LAST STRESS PERIOD

 REUSING RIVS FROM LAST STRESS PERIOD

 REUSING RIVS FROM LAST STRESS PERIOD

 REUSING RCHS FROM LAST STRESS PERIOD
 UBDSV06 SAVING              DRN IN MODEL GWF_1            PACKAGE GWF_1           CONNECTED TO MODEL GWF_1            PACKAGE DRN_SYS1         ON UNIT   1018 AT TIME STEP      1, STRESS PERIOD    143
 UBDSV06 SAVING              RIV IN MODEL GWF_1            PACKAGE GWF_1           CONNECTED TO MODEL GWF_1            PACKAGE RIV_SYS1         ON UNIT   1018 AT TIME STEP      1, STRESS PERIOD    143
 UBDSV06 SAVING              RIV IN MODEL GWF_1            PACKAGE GWF_1           CONNECTED TO MODEL GWF_1            PACKAGE RIV_SYS2         ON UNIT   1018 AT TIME STEP      1, STRESS PERIOD    143

 HEAD WILL BE SAVED ON UNIT 1017 AT END OF TIME STEP    1, STRESS PERIOD  143


  VOLUME BUDGET FOR ENTIRE MODEL AT END OF TIME STEP    1, STRESS PERIOD 143
  ---------------------------------------------------------------------------------------------------

     CUMULATIVE VOLUME      L**3       RATES FOR THIS TIME STEP      L**3/T          PACKAGE NAME    
     ------------------                 ------------------------                     ----------------

           IN:                                      IN:
           ---                                      ---
              STO-SS =      227354.3646                STO-SS =           4.6183     STORAGE                          
                 DRN =           0.0000                   DRN =           0.0000     DRN_SYS1                         
                 RIV =      141140.1483                   RIV =        1274.3618     RIV_SYS1                         
                 RIV =           0.0000                   RIV =           0.0000     RIV_SYS2                         
                 RCH =           0.0000                   RCH =           0.0000     RCH_MSW                          

            TOTAL IN =      368494.5129              TOTAL IN =        1278.9801

          OUT:                                     OUT:
          ----                                     ----
              STO-SS =           0.0000                STO-SS =           0.0000     STORAGE                          
                 DRN =        6830.3696                   DRN =           9.4742     DRN_SYS1                         
                 RIV =      342177.7584                   RIV =        1229.6184     RIV_SYS1                         
                 RIV =       19487.2187                   RIV =          39.9368     RIV_SYS2                         
                 RCH =           0.0000                   RCH =           0.0000     RCH_MSW                          

           TOTAL OUT =      368495.3466             TOTAL OUT =        1279.0294

            IN - OUT =          -0.8338              IN - OUT =      -4.9356E-02

 PERCENT DISCREPANCY =          -0.00     PERCENT DISCREPANCY =          -0.00




         TIME SUMMARY AT END OF TIME STEP    1 IN STRESS PERIOD  143
                    SECONDS     MINUTES      HOURS       DAYS        YEARS
                    -----------------------------------------------------------
   TIME STEP LENGTH  86400.      1440.0      24.000      1.0000     2.73785E-03
 STRESS PERIOD TIME  86400.      1440.0      24.000      1.0000     2.73785E-03
         TOTAL TIME 1.23552E+07 2.05920E+05  3432.0      143.00     0.39151    


end timestep


start timestep kper="144" kstp="1" mode="normal"

 #Stressperiod Save Options

 BEGIN READING OUTPUT CONTROL FOR STRESS PERIOD 144
      ALL TIME STEPS WILL BE SAVED
      ALL TIME STEPS WILL BE SAVED

 END READING OUTPUT CONTROL FOR STRESS PERIOD 144


 PROCESSING STORAGE PERIOD DATA
 END PROCESSING STORAGE PERIOD DATA


 STRESS PERIOD 144 IS TRANSIENT


 REUSING DRNS FROM LAST STRESS PERIOD

 REUSING RIVS FROM LAST STRESS PERIOD

 REUSING RIVS FROM LAST STRESS PERIOD

 REUSING RCHS FROM LAST STRESS PERIOD
 UBDSV06 SAVING              DRN IN MODEL GWF_1            PACKAGE GWF_1           CONNECTED TO MODEL GWF_1            PACKAGE DRN_SYS1         ON UNIT   1018 AT TIME STEP      1, STRESS PERIOD    144
 UBDSV06 SAVING              RIV IN MODEL GWF_1            PACKAGE GWF_1           CONNECTED TO MODEL GWF_1            PACKAGE RIV_SYS1         ON UNIT   1018 AT TIME STEP      1, STRESS PERIOD    144
 UBDSV06 SAVING              RIV IN MODEL GWF_1            PACKAGE GWF_1           CONNECTED TO MODEL GWF_1            PACKAGE RIV_SYS2         ON UNIT   1018 AT TIME STEP      1, STRESS PERIOD    144

 HEAD WILL BE SAVED ON UNIT 1017 AT END OF TIME STEP    1, STRESS PERIOD  144


  VOLUME BUDGET FOR ENTIRE MODEL AT END OF TIME STEP    1, STRESS PERIOD 144
  ---------------------------------------------------------------------------------------------------

     CUMULATIVE VOLUME      L**3       RATES FOR THIS TIME STEP      L**3/T          PACKAGE NAME    
     ------------------                 ------------------------                     ----------------

           IN:                                      IN:
           ---                                      ---
              STO-SS =      227358.7436                STO-SS =           4.3790     STORAGE                          
                 DRN =           0.0000                   DRN =           0.0000     DRN_SYS1                         
                 RIV =      142414.5862                   RIV =        1274.4379     RIV_SYS1                         
                 RIV =           0.0000                   RIV =           0.0000     RIV_SYS2                         
                 RCH =           0.0000                   RCH =           0.0000     RCH_MSW                          

            TOTAL IN =      369773.3298              TOTAL IN =        1278.8170

          OUT:                                     OUT:
          ----                                     ----
              STO-SS =           0.0000                STO-SS =           0.0000     STORAGE                          
                 DRN =        6839.8359                   DRN =           9.4664     DRN_SYS1                         
                 RIV =      343407.2344                   RIV =        1229.4761     RIV_SYS1                         
                 RIV =       19527.1397                   RIV =          39.9210     RIV_SYS2                         
                 RCH =           0.0000                   RCH =           0.0000     RCH_MSW                          

           TOTAL OUT =      369774.2101             TOTAL OUT =        1278.8634

            IN - OUT =          -0.8802              IN - OUT =      -4.6473E-02

 PERCENT DISCREPANCY =          -0.00     PERCENT DISCREPANCY =          -0.00




         TIME SUMMARY AT END OF TIME STEP    1 IN STRESS PERIOD  144
                    SECONDS     MINUTES      HOURS       DAYS        YEARS
                    -----------------------------------------------------------
   TIME STEP LENGTH  86400.      1440.0      24.000      1.0000     2.73785E-03
 STRESS PERIOD TIME  86400.      1440.0      24.000      1.0000     2.73785E-03
         TOTAL TIME 1.24416E+07 2.07360E+05  3456.0      144.00     0.39425    


end timestep


start timestep kper="145" kstp="1" mode="normal"

 #Stressperiod Save Options

 BEGIN READING OUTPUT CONTROL FOR STRESS PERIOD 145
      ALL TIME STEPS WILL BE SAVED
      ALL TIME STEPS WILL BE SAVED

 END READING OUTPUT CONTROL FOR STRESS PERIOD 145


 PROCESSING STORAGE PERIOD DATA
 END PROCESSING STORAGE PERIOD DATA


 STRESS PERIOD 145 IS TRANSIENT


 REUSING DRNS FROM LAST STRESS PERIOD

 REUSING RIVS FROM LAST STRESS PERIOD

 REUSING RIVS FROM LAST STRESS PERIOD

 REUSING RCHS FROM LAST STRESS PERIOD
 UBDSV06 SAVING              DRN IN MODEL GWF_1            PACKAGE GWF_1           CONNECTED TO MODEL GWF_1            PACKAGE DRN_SYS1         ON UNIT   1018 AT TIME STEP      1, STRESS PERIOD    145
 UBDSV06 SAVING              RIV IN MODEL GWF_1            PACKAGE GWF_1           CONNECTED TO MODEL GWF_1            PACKAGE RIV_SYS1         ON UNIT   1018 AT TIME STEP      1, STRESS PERIOD    145
 UBDSV06 SAVING              RIV IN MODEL GWF_1            PACKAGE GWF_1           CONNECTED TO MODEL GWF_1            PACKAGE RIV_SYS2         ON UNIT   1018 AT TIME STEP      1, STRESS PERIOD    145

 HEAD WILL BE SAVED ON UNIT 1017 AT END OF TIME STEP    1, STRESS PERIOD  145


  VOLUME BUDGET FOR ENTIRE MODEL AT END OF TIME STEP    1, STRESS PERIOD 145
  ---------------------------------------------------------------------------------------------------

     CUMULATIVE VOLUME      L**3       RATES FOR THIS TIME STEP      L**3/T          PACKAGE NAME    
     ------------------                 ------------------------                     ----------------

           IN:                                      IN:
           ---                                      ---
              STO-SS =      227362.8954                STO-SS =           4.1518     STORAGE                          
                 DRN =           0.0000                   DRN =           0.0000     DRN_SYS1                         
                 RIV =      143689.0965                   RIV =        1274.5103     RIV_SYS1                         
                 RIV =           0.0000                   RIV =           0.0000     RIV_SYS2                         
                 RCH =           0.0000                   RCH =           0.0000     RCH_MSW                          

            TOTAL IN =      371051.9919              TOTAL IN =        1278.6620

          OUT:                                     OUT:
          ----                                     ----
              STO-SS =           0.0000                STO-SS =           0.0000     STORAGE                          
                 DRN =        6849.2948                   DRN =           9.4589     DRN_SYS1                         
                 RIV =      344636.5754                   RIV =        1229.3410     RIV_SYS1                         
                 RIV =       19567.0457                   RIV =          39.9060     RIV_SYS2                         
                 RCH =           0.0000                   RCH =           0.0000     RCH_MSW                          

           TOTAL OUT =      371052.9159             TOTAL OUT =        1278.7059

            IN - OUT =          -0.9241              IN - OUT =      -4.3818E-02

 PERCENT DISCREPANCY =          -0.00     PERCENT DISCREPANCY =          -0.00




         TIME SUMMARY AT END OF TIME STEP    1 IN STRESS PERIOD  145
                    SECONDS     MINUTES      HOURS       DAYS        YEARS
                    -----------------------------------------------------------
   TIME STEP LENGTH  86400.      1440.0      24.000      1.0000     2.73785E-03
 STRESS PERIOD TIME  86400.      1440.0      24.000      1.0000     2.73785E-03
         TOTAL TIME 1.25280E+07 2.08800E+05  3480.0      145.00     0.39699    


end timestep


start timestep kper="146" kstp="1" mode="normal"

 #Stressperiod Save Options

 BEGIN READING OUTPUT CONTROL FOR STRESS PERIOD 146
      ALL TIME STEPS WILL BE SAVED
      ALL TIME STEPS WILL BE SAVED

 END READING OUTPUT CONTROL FOR STRESS PERIOD 146


 PROCESSING STORAGE PERIOD DATA
 END PROCESSING STORAGE PERIOD DATA


 STRESS PERIOD 146 IS TRANSIENT


 REUSING DRNS FROM LAST STRESS PERIOD

 REUSING RIVS FROM LAST STRESS PERIOD

 REUSING RIVS FROM LAST STRESS PERIOD

 REUSING RCHS FROM LAST STRESS PERIOD
 UBDSV06 SAVING              DRN IN MODEL GWF_1            PACKAGE GWF_1           CONNECTED TO MODEL GWF_1            PACKAGE DRN_SYS1         ON UNIT   1018 AT TIME STEP      1, STRESS PERIOD    146
 UBDSV06 SAVING              RIV IN MODEL GWF_1            PACKAGE GWF_1           CONNECTED TO MODEL GWF_1            PACKAGE RIV_SYS1         ON UNIT   1018 AT TIME STEP      1, STRESS PERIOD    146
 UBDSV06 SAVING              RIV IN MODEL GWF_1            PACKAGE GWF_1           CONNECTED TO MODEL GWF_1            PACKAGE RIV_SYS2         ON UNIT   1018 AT TIME STEP      1, STRESS PERIOD    146

 HEAD WILL BE SAVED ON UNIT 1017 AT END OF TIME STEP    1, STRESS PERIOD  146


  VOLUME BUDGET FOR ENTIRE MODEL AT END OF TIME STEP    1, STRESS PERIOD 146
  ---------------------------------------------------------------------------------------------------

     CUMULATIVE VOLUME      L**3       RATES FOR THIS TIME STEP      L**3/T          PACKAGE NAME    
     ------------------                 ------------------------                     ----------------

           IN:                                      IN:
           ---                                      ---
              STO-SS =      227366.8314                STO-SS =           3.9360     STORAGE                          
                 DRN =           0.0000                   DRN =           0.0000     DRN_SYS1                         
                 RIV =      144963.6755                   RIV =        1274.5790     RIV_SYS1                         
                 RIV =           0.0000                   RIV =           0.0000     RIV_SYS2                         
                 RCH =           0.0000                   RCH =           0.0000     RCH_MSW                          

            TOTAL IN =      372330.5068              TOTAL IN =        1278.5150

          OUT:                                     OUT:
          ----                                     ----
              STO-SS =           0.0000                STO-SS =           0.0000     STORAGE                          
                 DRN =        6858.7466                   DRN =           9.4518     DRN_SYS1                         
                 RIV =      345865.7882                   RIV =        1229.2128     RIV_SYS1                         
                 RIV =       19606.9375                   RIV =          39.8918     RIV_SYS2                         
                 RCH =           0.0000                   RCH =           0.0000     RCH_MSW                          

           TOTAL OUT =      372331.4723             TOTAL OUT =        1278.5563

            IN - OUT =          -0.9654              IN - OUT =      -4.1356E-02

 PERCENT DISCREPANCY =          -0.00     PERCENT DISCREPANCY =          -0.00




         TIME SUMMARY AT END OF TIME STEP    1 IN STRESS PERIOD  146
                    SECONDS     MINUTES      HOURS       DAYS        YEARS
                    -----------------------------------------------------------
   TIME STEP LENGTH  86400.      1440.0      24.000      1.0000     2.73785E-03
 STRESS PERIOD TIME  86400.      1440.0      24.000      1.0000     2.73785E-03
         TOTAL TIME 1.26144E+07 2.10240E+05  3504.0      146.00     0.39973    


end timestep


start timestep kper="147" kstp="1" mode="normal"

 #Stressperiod Save Options

 BEGIN READING OUTPUT CONTROL FOR STRESS PERIOD 147
      ALL TIME STEPS WILL BE SAVED
      ALL TIME STEPS WILL BE SAVED

 END READING OUTPUT CONTROL FOR STRESS PERIOD 147


 PROCESSING STORAGE PERIOD DATA
 END PROCESSING STORAGE PERIOD DATA


 STRESS PERIOD 147 IS TRANSIENT


 REUSING DRNS FROM LAST STRESS PERIOD

 REUSING RIVS FROM LAST STRESS PERIOD

 REUSING RIVS FROM LAST STRESS PERIOD

 REUSING RCHS FROM LAST STRESS PERIOD
 UBDSV06 SAVING              DRN IN MODEL GWF_1            PACKAGE GWF_1           CONNECTED TO MODEL GWF_1            PACKAGE DRN_SYS1         ON UNIT   1018 AT TIME STEP      1, STRESS PERIOD    147
 UBDSV06 SAVING              RIV IN MODEL GWF_1            PACKAGE GWF_1           CONNECTED TO MODEL GWF_1            PACKAGE RIV_SYS1         ON UNIT   1018 AT TIME STEP      1, STRESS PERIOD    147
 UBDSV06 SAVING              RIV IN MODEL GWF_1            PACKAGE GWF_1           CONNECTED TO MODEL GWF_1            PACKAGE RIV_SYS2         ON UNIT   1018 AT TIME STEP      1, STRESS PERIOD    147

 HEAD WILL BE SAVED ON UNIT 1017 AT END OF TIME STEP    1, STRESS PERIOD  147


  VOLUME BUDGET FOR ENTIRE MODEL AT END OF TIME STEP    1, STRESS PERIOD 147
  ---------------------------------------------------------------------------------------------------

     CUMULATIVE VOLUME      L**3       RATES FOR THIS TIME STEP      L**3/T          PACKAGE NAME    
     ------------------                 ------------------------                     ----------------

           IN:                                      IN:
           ---                                      ---
              STO-SS =      227370.5627                STO-SS =           3.7313     STORAGE                          
                 DRN =           0.0000                   DRN =           0.0000     DRN_SYS1                         
                 RIV =      146238.3196                   RIV =        1274.6442     RIV_SYS1                         
                 RIV =           0.0000                   RIV =           0.0000     RIV_SYS2                         
                 RCH =           0.0000                   RCH =           0.0000     RCH_MSW                          

            TOTAL IN =      373608.8823              TOTAL IN =        1278.3754

          OUT:                                     OUT:
          ----                                     ----
              STO-SS =           0.0000                STO-SS =           0.0000     STORAGE                          
                 DRN =        6868.1917                   DRN =           9.4451     DRN_SYS1                         
                 RIV =      347094.8793                   RIV =        1229.0911     RIV_SYS1                         
                 RIV =       19646.8158                   RIV =          39.8783     RIV_SYS2                         
                 RCH =           0.0000                   RCH =           0.0000     RCH_MSW                          

           TOTAL OUT =      373609.8868             TOTAL OUT =        1278.4145

            IN - OUT =          -1.0045              IN - OUT =      -3.9063E-02

 PERCENT DISCREPANCY =          -0.00     PERCENT DISCREPANCY =          -0.00




         TIME SUMMARY AT END OF TIME STEP    1 IN STRESS PERIOD  147
                    SECONDS     MINUTES      HOURS       DAYS        YEARS
                    -----------------------------------------------------------
   TIME STEP LENGTH  86400.      1440.0      24.000      1.0000     2.73785E-03
 STRESS PERIOD TIME  86400.      1440.0      24.000      1.0000     2.73785E-03
         TOTAL TIME 1.27008E+07 2.11680E+05  3528.0      147.00     0.40246    


end timestep


start timestep kper="148" kstp="1" mode="normal"

 #Stressperiod Save Options

 BEGIN READING OUTPUT CONTROL FOR STRESS PERIOD 148
      ALL TIME STEPS WILL BE SAVED
      ALL TIME STEPS WILL BE SAVED

 END READING OUTPUT CONTROL FOR STRESS PERIOD 148


 PROCESSING STORAGE PERIOD DATA
 END PROCESSING STORAGE PERIOD DATA


 STRESS PERIOD 148 IS TRANSIENT


 REUSING DRNS FROM LAST STRESS PERIOD

 REUSING RIVS FROM LAST STRESS PERIOD

 REUSING RIVS FROM LAST STRESS PERIOD

 REUSING RCHS FROM LAST STRESS PERIOD
 UBDSV06 SAVING              DRN IN MODEL GWF_1            PACKAGE GWF_1           CONNECTED TO MODEL GWF_1            PACKAGE DRN_SYS1         ON UNIT   1018 AT TIME STEP      1, STRESS PERIOD    148
 UBDSV06 SAVING              RIV IN MODEL GWF_1            PACKAGE GWF_1           CONNECTED TO MODEL GWF_1            PACKAGE RIV_SYS1         ON UNIT   1018 AT TIME STEP      1, STRESS PERIOD    148
 UBDSV06 SAVING              RIV IN MODEL GWF_1            PACKAGE GWF_1           CONNECTED TO MODEL GWF_1            PACKAGE RIV_SYS2         ON UNIT   1018 AT TIME STEP      1, STRESS PERIOD    148

 HEAD WILL BE SAVED ON UNIT 1017 AT END OF TIME STEP    1, STRESS PERIOD  148


  VOLUME BUDGET FOR ENTIRE MODEL AT END OF TIME STEP    1, STRESS PERIOD 148
  ---------------------------------------------------------------------------------------------------

     CUMULATIVE VOLUME      L**3       RATES FOR THIS TIME STEP      L**3/T          PACKAGE NAME    
     ------------------                 ------------------------                     ----------------

           IN:                                      IN:
           ---                                      ---
              STO-SS =      227374.0997                STO-SS =           3.5371     STORAGE                          
                 DRN =           0.0000                   DRN =           0.0000     DRN_SYS1                         
                 RIV =      147513.0256                   RIV =        1274.7060     RIV_SYS1                         
                 RIV =           0.0000                   RIV =           0.0000     RIV_SYS2                         
                 RCH =           0.0000                   RCH =           0.0000     RCH_MSW                          

            TOTAL IN =      374887.1254              TOTAL IN =        1278.2431

          OUT:                                     OUT:
          ----                                     ----
              STO-SS =           0.0000                STO-SS =           0.0000     STORAGE                          
                 DRN =        6877.6304                   DRN =           9.4387     DRN_SYS1                         
                 RIV =      348323.8551                   RIV =        1228.9758     RIV_SYS1                         
                 RIV =       19686.6813                   RIV =          39.8655     RIV_SYS2                         
                 RCH =           0.0000                   RCH =           0.0000     RCH_MSW                          

           TOTAL OUT =      374888.1668             TOTAL OUT =        1278.2800

            IN - OUT =          -1.0414              IN - OUT =      -3.6918E-02

 PERCENT DISCREPANCY =          -0.00     PERCENT DISCREPANCY =          -0.00




         TIME SUMMARY AT END OF TIME STEP    1 IN STRESS PERIOD  148
                    SECONDS     MINUTES      HOURS       DAYS        YEARS
                    -----------------------------------------------------------
   TIME STEP LENGTH  86400.      1440.0      24.000      1.0000     2.73785E-03
 STRESS PERIOD TIME  86400.      1440.0      24.000      1.0000     2.73785E-03
         TOTAL TIME 1.27872E+07 2.13120E+05  3552.0      148.00     0.40520    


end timestep


start timestep kper="149" kstp="1" mode="normal"

 #Stressperiod Save Options

 BEGIN READING OUTPUT CONTROL FOR STRESS PERIOD 149
      ALL TIME STEPS WILL BE SAVED
      ALL TIME STEPS WILL BE SAVED

 END READING OUTPUT CONTROL FOR STRESS PERIOD 149


 PROCESSING STORAGE PERIOD DATA
 END PROCESSING STORAGE PERIOD DATA


 STRESS PERIOD 149 IS TRANSIENT


 REUSING DRNS FROM LAST STRESS PERIOD

 REUSING RIVS FROM LAST STRESS PERIOD

 REUSING RIVS FROM LAST STRESS PERIOD

 REUSING RCHS FROM LAST STRESS PERIOD
 UBDSV06 SAVING              DRN IN MODEL GWF_1            PACKAGE GWF_1           CONNECTED TO MODEL GWF_1            PACKAGE DRN_SYS1         ON UNIT   1018 AT TIME STEP      1, STRESS PERIOD    149
 UBDSV06 SAVING              RIV IN MODEL GWF_1            PACKAGE GWF_1           CONNECTED TO MODEL GWF_1            PACKAGE RIV_SYS1         ON UNIT   1018 AT TIME STEP      1, STRESS PERIOD    149
 UBDSV06 SAVING              RIV IN MODEL GWF_1            PACKAGE GWF_1           CONNECTED TO MODEL GWF_1            PACKAGE RIV_SYS2         ON UNIT   1018 AT TIME STEP      1, STRESS PERIOD    149

 HEAD WILL BE SAVED ON UNIT 1017 AT END OF TIME STEP    1, STRESS PERIOD  149


  VOLUME BUDGET FOR ENTIRE MODEL AT END OF TIME STEP    1, STRESS PERIOD 149
  ---------------------------------------------------------------------------------------------------

     CUMULATIVE VOLUME      L**3       RATES FOR THIS TIME STEP      L**3/T          PACKAGE NAME    
     ------------------                 ------------------------                     ----------------

           IN:                                      IN:
           ---                                      ---
              STO-SS =      227377.4525                STO-SS =           3.3528     STORAGE                          
                 DRN =           0.0000                   DRN =           0.0000     DRN_SYS1                         
                 RIV =      148787.7904                   RIV =        1274.7647     RIV_SYS1                         
                 RIV =           0.0000                   RIV =           0.0000     RIV_SYS2                         
                 RCH =           0.0000                   RCH =           0.0000     RCH_MSW                          

            TOTAL IN =      376165.2429              TOTAL IN =        1278.1175

          OUT:                                     OUT:
          ----                                     ----
              STO-SS =           0.0000                STO-SS =           0.0000     STORAGE                          
                 DRN =        6887.0630                   DRN =           9.4326     DRN_SYS1                         
                 RIV =      349552.7215                   RIV =        1228.8664     RIV_SYS1                         
                 RIV =       19726.5348                   RIV =          39.8534     RIV_SYS2                         
                 RCH =           0.0000                   RCH =           0.0000     RCH_MSW                          

           TOTAL OUT =      376166.3192             TOTAL OUT =        1278.1524

            IN - OUT =          -1.0763              IN - OUT =      -3.4907E-02

 PERCENT DISCREPANCY =          -0.00     PERCENT DISCREPANCY =          -0.00




         TIME SUMMARY AT END OF TIME STEP    1 IN STRESS PERIOD  149
                    SECONDS     MINUTES      HOURS       DAYS        YEARS
                    -----------------------------------------------------------
   TIME STEP LENGTH  86400.      1440.0      24.000      1.0000     2.73785E-03
 STRESS PERIOD TIME  86400.      1440.0      24.000      1.0000     2.73785E-03
         TOTAL TIME 1.28736E+07 2.14560E+05  3576.0      149.00     0.40794    


end timestep


start timestep kper="150" kstp="1" mode="normal"

 #Stressperiod Save Options

 BEGIN READING OUTPUT CONTROL FOR STRESS PERIOD 150
      ALL TIME STEPS WILL BE SAVED
      ALL TIME STEPS WILL BE SAVED

 END READING OUTPUT CONTROL FOR STRESS PERIOD 150


 PROCESSING STORAGE PERIOD DATA
 END PROCESSING STORAGE PERIOD DATA


 STRESS PERIOD 150 IS TRANSIENT


 REUSING DRNS FROM LAST STRESS PERIOD

 REUSING RIVS FROM LAST STRESS PERIOD

 REUSING RIVS FROM LAST STRESS PERIOD

 REUSING RCHS FROM LAST STRESS PERIOD
 UBDSV06 SAVING              DRN IN MODEL GWF_1            PACKAGE GWF_1           CONNECTED TO MODEL GWF_1            PACKAGE DRN_SYS1         ON UNIT   1018 AT TIME STEP      1, STRESS PERIOD    150
 UBDSV06 SAVING              RIV IN MODEL GWF_1            PACKAGE GWF_1           CONNECTED TO MODEL GWF_1            PACKAGE RIV_SYS1         ON UNIT   1018 AT TIME STEP      1, STRESS PERIOD    150
 UBDSV06 SAVING              RIV IN MODEL GWF_1            PACKAGE GWF_1           CONNECTED TO MODEL GWF_1            PACKAGE RIV_SYS2         ON UNIT   1018 AT TIME STEP      1, STRESS PERIOD    150

 HEAD WILL BE SAVED ON UNIT 1017 AT END OF TIME STEP    1, STRESS PERIOD  150


  VOLUME BUDGET FOR ENTIRE MODEL AT END OF TIME STEP    1, STRESS PERIOD 150
  ---------------------------------------------------------------------------------------------------

     CUMULATIVE VOLUME      L**3       RATES FOR THIS TIME STEP      L**3/T          PACKAGE NAME    
     ------------------                 ------------------------                     ----------------

           IN:                                      IN:
           ---                                      ---
              STO-SS =      227380.6306                STO-SS =           3.1781     STORAGE                          
                 DRN =           0.0000                   DRN =           0.0000     DRN_SYS1                         
                 RIV =      150062.6108                   RIV =        1274.8204     RIV_SYS1                         
                 RIV =           0.0000                   RIV =           0.0000     RIV_SYS2                         
                 RCH =           0.0000                   RCH =           0.0000     RCH_MSW                          

            TOTAL IN =      377443.2414              TOTAL IN =        1277.9985

          OUT:                                     OUT:
          ----                                     ----
              STO-SS =           0.0000                STO-SS =           0.0000     STORAGE                          
                 DRN =        6896.4898                   DRN =           9.4269     DRN_SYS1                         
                 RIV =      350781.4841                   RIV =        1228.7627     RIV_SYS1                         
                 RIV =       19766.3767                   RIV =          39.8420     RIV_SYS2                         
                 RCH =           0.0000                   RCH =           0.0000     RCH_MSW                          

           TOTAL OUT =      377444.3507             TOTAL OUT =        1278.0315

            IN - OUT =          -1.1093              IN - OUT =      -3.3018E-02

 PERCENT DISCREPANCY =          -0.00     PERCENT DISCREPANCY =          -0.00




         TIME SUMMARY AT END OF TIME STEP    1 IN STRESS PERIOD  150
                    SECONDS     MINUTES      HOURS       DAYS        YEARS
                    -----------------------------------------------------------
   TIME STEP LENGTH  86400.      1440.0      24.000      1.0000     2.73785E-03
 STRESS PERIOD TIME  86400.      1440.0      24.000      1.0000     2.73785E-03
         TOTAL TIME 1.29600E+07 2.16000E+05  3600.0      150.00     0.41068    


end timestep


start timestep kper="151" kstp="1" mode="normal"

 #Stressperiod Save Options

 BEGIN READING OUTPUT CONTROL FOR STRESS PERIOD 151
      ALL TIME STEPS WILL BE SAVED
      ALL TIME STEPS WILL BE SAVED

 END READING OUTPUT CONTROL FOR STRESS PERIOD 151


 PROCESSING STORAGE PERIOD DATA
 END PROCESSING STORAGE PERIOD DATA


 STRESS PERIOD 151 IS TRANSIENT


 REUSING DRNS FROM LAST STRESS PERIOD

 REUSING RIVS FROM LAST STRESS PERIOD

 REUSING RIVS FROM LAST STRESS PERIOD

 REUSING RCHS FROM LAST STRESS PERIOD
 UBDSV06 SAVING              DRN IN MODEL GWF_1            PACKAGE GWF_1           CONNECTED TO MODEL GWF_1            PACKAGE DRN_SYS1         ON UNIT   1018 AT TIME STEP      1, STRESS PERIOD    151
 UBDSV06 SAVING              RIV IN MODEL GWF_1            PACKAGE GWF_1           CONNECTED TO MODEL GWF_1            PACKAGE RIV_SYS1         ON UNIT   1018 AT TIME STEP      1, STRESS PERIOD    151
 UBDSV06 SAVING              RIV IN MODEL GWF_1            PACKAGE GWF_1           CONNECTED TO MODEL GWF_1            PACKAGE RIV_SYS2         ON UNIT   1018 AT TIME STEP      1, STRESS PERIOD    151

 HEAD WILL BE SAVED ON UNIT 1017 AT END OF TIME STEP    1, STRESS PERIOD  151


  VOLUME BUDGET FOR ENTIRE MODEL AT END OF TIME STEP    1, STRESS PERIOD 151
  ---------------------------------------------------------------------------------------------------

     CUMULATIVE VOLUME      L**3       RATES FOR THIS TIME STEP      L**3/T          PACKAGE NAME    
     ------------------                 ------------------------                     ----------------

           IN:                                      IN:
           ---                                      ---
              STO-SS =      227383.6430                STO-SS =           3.0124     STORAGE                          
                 DRN =           0.0000                   DRN =           0.0000     DRN_SYS1                         
                 RIV =      151337.4840                   RIV =        1274.8733     RIV_SYS1                         
                 RIV =           0.0000                   RIV =           0.0000     RIV_SYS2                         
                 RCH =           0.0000                   RCH =           0.0000     RCH_MSW                          

            TOTAL IN =      378721.1270              TOTAL IN =        1277.8856

          OUT:                                     OUT:
          ----                                     ----
              STO-SS =           0.0000                STO-SS =           0.0000     STORAGE                          
                 DRN =        6905.9113                   DRN =           9.4214     DRN_SYS1                         
                 RIV =      352010.1485                   RIV =        1228.6643     RIV_SYS1                         
                 RIV =       19806.2078                   RIV =          39.8311     RIV_SYS2                         
                 RCH =           0.0000                   RCH =           0.0000     RCH_MSW                          

           TOTAL OUT =      378722.2676             TOTAL OUT =        1277.9169

            IN - OUT =          -1.1406              IN - OUT =      -3.1240E-02

 PERCENT DISCREPANCY =          -0.00     PERCENT DISCREPANCY =          -0.00




         TIME SUMMARY AT END OF TIME STEP    1 IN STRESS PERIOD  151
                    SECONDS     MINUTES      HOURS       DAYS        YEARS
                    -----------------------------------------------------------
   TIME STEP LENGTH  86400.      1440.0      24.000      1.0000     2.73785E-03
 STRESS PERIOD TIME  86400.      1440.0      24.000      1.0000     2.73785E-03
         TOTAL TIME 1.30464E+07 2.17440E+05  3624.0      151.00     0.41342    


end timestep


start timestep kper="152" kstp="1" mode="normal"

 #Stressperiod Save Options

 BEGIN READING OUTPUT CONTROL FOR STRESS PERIOD 152
      ALL TIME STEPS WILL BE SAVED
      ALL TIME STEPS WILL BE SAVED

 END READING OUTPUT CONTROL FOR STRESS PERIOD 152


 PROCESSING STORAGE PERIOD DATA
 END PROCESSING STORAGE PERIOD DATA


 STRESS PERIOD 152 IS TRANSIENT


 REUSING DRNS FROM LAST STRESS PERIOD

 REUSING RIVS FROM LAST STRESS PERIOD

 REUSING RIVS FROM LAST STRESS PERIOD

 REUSING RCHS FROM LAST STRESS PERIOD
 UBDSV06 SAVING              DRN IN MODEL GWF_1            PACKAGE GWF_1           CONNECTED TO MODEL GWF_1            PACKAGE DRN_SYS1         ON UNIT   1018 AT TIME STEP      1, STRESS PERIOD    152
 UBDSV06 SAVING              RIV IN MODEL GWF_1            PACKAGE GWF_1           CONNECTED TO MODEL GWF_1            PACKAGE RIV_SYS1         ON UNIT   1018 AT TIME STEP      1, STRESS PERIOD    152
 UBDSV06 SAVING              RIV IN MODEL GWF_1            PACKAGE GWF_1           CONNECTED TO MODEL GWF_1            PACKAGE RIV_SYS2         ON UNIT   1018 AT TIME STEP      1, STRESS PERIOD    152

 HEAD WILL BE SAVED ON UNIT 1017 AT END OF TIME STEP    1, STRESS PERIOD  152


  VOLUME BUDGET FOR ENTIRE MODEL AT END OF TIME STEP    1, STRESS PERIOD 152
  ---------------------------------------------------------------------------------------------------

     CUMULATIVE VOLUME      L**3       RATES FOR THIS TIME STEP      L**3/T          PACKAGE NAME    
     ------------------                 ------------------------                     ----------------

           IN:                                      IN:
           ---                                      ---
              STO-SS =      227386.4982                STO-SS =           2.8552     STORAGE                          
                 DRN =           0.0000                   DRN =           0.0000     DRN_SYS1                         
                 RIV =      152612.4074                   RIV =        1274.9234     RIV_SYS1                         
                 RIV =           0.0000                   RIV =           0.0000     RIV_SYS2                         
                 RCH =           0.0000                   RCH =           0.0000     RCH_MSW                          

            TOTAL IN =      379998.9056              TOTAL IN =        1277.7786

          OUT:                                     OUT:
          ----                                     ----
              STO-SS =           0.0000                STO-SS =           0.0000     STORAGE                          
                 DRN =        6915.3275                   DRN =           9.4163     DRN_SYS1                         
                 RIV =      353238.7196                   RIV =        1228.5711     RIV_SYS1                         
                 RIV =       19846.0286                   RIV =          39.8208     RIV_SYS2                         
                 RCH =           0.0000                   RCH =           0.0000     RCH_MSW                          

           TOTAL OUT =      380000.0757             TOTAL OUT =        1277.8082

            IN - OUT =          -1.1701              IN - OUT =      -2.9565E-02

 PERCENT DISCREPANCY =          -0.00     PERCENT DISCREPANCY =          -0.00




         TIME SUMMARY AT END OF TIME STEP    1 IN STRESS PERIOD  152
                    SECONDS     MINUTES      HOURS       DAYS        YEARS
                    -----------------------------------------------------------
   TIME STEP LENGTH  86400.      1440.0      24.000      1.0000     2.73785E-03
 STRESS PERIOD TIME  86400.      1440.0      24.000      1.0000     2.73785E-03
         TOTAL TIME 1.31328E+07 2.18880E+05  3648.0      152.00     0.41615    


end timestep


start timestep kper="153" kstp="1" mode="normal"

 #Stressperiod Save Options

 BEGIN READING OUTPUT CONTROL FOR STRESS PERIOD 153
      ALL TIME STEPS WILL BE SAVED
      ALL TIME STEPS WILL BE SAVED

 END READING OUTPUT CONTROL FOR STRESS PERIOD 153


 PROCESSING STORAGE PERIOD DATA
 END PROCESSING STORAGE PERIOD DATA


 STRESS PERIOD 153 IS TRANSIENT


 REUSING DRNS FROM LAST STRESS PERIOD

 REUSING RIVS FROM LAST STRESS PERIOD

 REUSING RIVS FROM LAST STRESS PERIOD

 REUSING RCHS FROM LAST STRESS PERIOD
 UBDSV06 SAVING              DRN IN MODEL GWF_1            PACKAGE GWF_1           CONNECTED TO MODEL GWF_1            PACKAGE DRN_SYS1         ON UNIT   1018 AT TIME STEP      1, STRESS PERIOD    153
 UBDSV06 SAVING              RIV IN MODEL GWF_1            PACKAGE GWF_1           CONNECTED TO MODEL GWF_1            PACKAGE RIV_SYS1         ON UNIT   1018 AT TIME STEP      1, STRESS PERIOD    153
 UBDSV06 SAVING              RIV IN MODEL GWF_1            PACKAGE GWF_1           CONNECTED TO MODEL GWF_1            PACKAGE RIV_SYS2         ON UNIT   1018 AT TIME STEP      1, STRESS PERIOD    153

 HEAD WILL BE SAVED ON UNIT 1017 AT END OF TIME STEP    1, STRESS PERIOD  153


  VOLUME BUDGET FOR ENTIRE MODEL AT END OF TIME STEP    1, STRESS PERIOD 153
  ---------------------------------------------------------------------------------------------------

     CUMULATIVE VOLUME      L**3       RATES FOR THIS TIME STEP      L**3/T          PACKAGE NAME    
     ------------------                 ------------------------                     ----------------

           IN:                                      IN:
           ---                                      ---
              STO-SS =      227389.2045                STO-SS =           2.7063     STORAGE                          
                 DRN =           0.0000                   DRN =           0.0000     DRN_SYS1                         
                 RIV =      153887.3783                   RIV =        1274.9709     RIV_SYS1                         
                 RIV =           0.0000                   RIV =           0.0000     RIV_SYS2                         
                 RCH =           0.0000                   RCH =           0.0000     RCH_MSW                          

            TOTAL IN =      381276.5828              TOTAL IN =        1277.6772

          OUT:                                     OUT:
          ----                                     ----
              STO-SS =           0.0000                STO-SS =           0.0000     STORAGE                          
                 DRN =        6924.7389                   DRN =           9.4114     DRN_SYS1                         
                 RIV =      354467.2023                   RIV =        1228.4827     RIV_SYS1                         
                 RIV =       19885.8397                   RIV =          39.8111     RIV_SYS2                         
                 RCH =           0.0000                   RCH =           0.0000     RCH_MSW                          

           TOTAL OUT =      381277.7809             TOTAL OUT =        1277.7052

            IN - OUT =          -1.1981              IN - OUT =      -2.7984E-02

 PERCENT DISCREPANCY =          -0.00     PERCENT DISCREPANCY =          -0.00




         TIME SUMMARY AT END OF TIME STEP    1 IN STRESS PERIOD  153
                    SECONDS     MINUTES      HOURS       DAYS        YEARS
                    -----------------------------------------------------------
   TIME STEP LENGTH  86400.      1440.0      24.000      1.0000     2.73785E-03
 STRESS PERIOD TIME  86400.      1440.0      24.000      1.0000     2.73785E-03
         TOTAL TIME 1.32192E+07 2.20320E+05  3672.0      153.00     0.41889    


end timestep


start timestep kper="154" kstp="1" mode="normal"

 #Stressperiod Save Options

 BEGIN READING OUTPUT CONTROL FOR STRESS PERIOD 154
      ALL TIME STEPS WILL BE SAVED
      ALL TIME STEPS WILL BE SAVED

 END READING OUTPUT CONTROL FOR STRESS PERIOD 154


 PROCESSING STORAGE PERIOD DATA
 END PROCESSING STORAGE PERIOD DATA


 STRESS PERIOD 154 IS TRANSIENT


 REUSING DRNS FROM LAST STRESS PERIOD

 REUSING RIVS FROM LAST STRESS PERIOD

 REUSING RIVS FROM LAST STRESS PERIOD

 REUSING RCHS FROM LAST STRESS PERIOD
 UBDSV06 SAVING              DRN IN MODEL GWF_1            PACKAGE GWF_1           CONNECTED TO MODEL GWF_1            PACKAGE DRN_SYS1         ON UNIT   1018 AT TIME STEP      1, STRESS PERIOD    154
 UBDSV06 SAVING              RIV IN MODEL GWF_1            PACKAGE GWF_1           CONNECTED TO MODEL GWF_1            PACKAGE RIV_SYS1         ON UNIT   1018 AT TIME STEP      1, STRESS PERIOD    154
 UBDSV06 SAVING              RIV IN MODEL GWF_1            PACKAGE GWF_1           CONNECTED TO MODEL GWF_1            PACKAGE RIV_SYS2         ON UNIT   1018 AT TIME STEP      1, STRESS PERIOD    154

 HEAD WILL BE SAVED ON UNIT 1017 AT END OF TIME STEP    1, STRESS PERIOD  154


  VOLUME BUDGET FOR ENTIRE MODEL AT END OF TIME STEP    1, STRESS PERIOD 154
  ---------------------------------------------------------------------------------------------------

     CUMULATIVE VOLUME      L**3       RATES FOR THIS TIME STEP      L**3/T          PACKAGE NAME    
     ------------------                 ------------------------                     ----------------

           IN:                                      IN:
           ---                                      ---
              STO-SS =      227391.7695                STO-SS =           2.5650     STORAGE                          
                 DRN =           0.0000                   DRN =           0.0000     DRN_SYS1                         
                 RIV =      155162.3944                   RIV =        1275.0160     RIV_SYS1                         
                 RIV =           0.0000                   RIV =           0.0000     RIV_SYS2                         
                 RCH =           0.0000                   RCH =           0.0000     RCH_MSW                          

            TOTAL IN =      382554.1638              TOTAL IN =        1277.5810

          OUT:                                     OUT:
          ----                                     ----
              STO-SS =           0.0000                STO-SS =           0.0000     STORAGE                          
                 DRN =        6934.1456                   DRN =           9.4067     DRN_SYS1                         
                 RIV =      355695.6013                   RIV =        1228.3990     RIV_SYS1                         
                 RIV =       19925.6415                   RIV =          39.8018     RIV_SYS2                         
                 RCH =           0.0000                   RCH =           0.0000     RCH_MSW                          

           TOTAL OUT =      382555.3884             TOTAL OUT =        1277.6075

            IN - OUT =          -1.2246              IN - OUT =      -2.6493E-02

 PERCENT DISCREPANCY =          -0.00     PERCENT DISCREPANCY =          -0.00




         TIME SUMMARY AT END OF TIME STEP    1 IN STRESS PERIOD  154
                    SECONDS     MINUTES      HOURS       DAYS        YEARS
                    -----------------------------------------------------------
   TIME STEP LENGTH  86400.      1440.0      24.000      1.0000     2.73785E-03
 STRESS PERIOD TIME  86400.      1440.0      24.000      1.0000     2.73785E-03
         TOTAL TIME 1.33056E+07 2.21760E+05  3696.0      154.00     0.42163    


end timestep


start timestep kper="155" kstp="1" mode="normal"

 #Stressperiod Save Options

 BEGIN READING OUTPUT CONTROL FOR STRESS PERIOD 155
      ALL TIME STEPS WILL BE SAVED
      ALL TIME STEPS WILL BE SAVED

 END READING OUTPUT CONTROL FOR STRESS PERIOD 155


 PROCESSING STORAGE PERIOD DATA
 END PROCESSING STORAGE PERIOD DATA


 STRESS PERIOD 155 IS TRANSIENT


 REUSING DRNS FROM LAST STRESS PERIOD

 REUSING RIVS FROM LAST STRESS PERIOD

 REUSING RIVS FROM LAST STRESS PERIOD

 REUSING RCHS FROM LAST STRESS PERIOD
 UBDSV06 SAVING              DRN IN MODEL GWF_1            PACKAGE GWF_1           CONNECTED TO MODEL GWF_1            PACKAGE DRN_SYS1         ON UNIT   1018 AT TIME STEP      1, STRESS PERIOD    155
 UBDSV06 SAVING              RIV IN MODEL GWF_1            PACKAGE GWF_1           CONNECTED TO MODEL GWF_1            PACKAGE RIV_SYS1         ON UNIT   1018 AT TIME STEP      1, STRESS PERIOD    155
 UBDSV06 SAVING              RIV IN MODEL GWF_1            PACKAGE GWF_1           CONNECTED TO MODEL GWF_1            PACKAGE RIV_SYS2         ON UNIT   1018 AT TIME STEP      1, STRESS PERIOD    155

 HEAD WILL BE SAVED ON UNIT 1017 AT END OF TIME STEP    1, STRESS PERIOD  155


  VOLUME BUDGET FOR ENTIRE MODEL AT END OF TIME STEP    1, STRESS PERIOD 155
  ---------------------------------------------------------------------------------------------------

     CUMULATIVE VOLUME      L**3       RATES FOR THIS TIME STEP      L**3/T          PACKAGE NAME    
     ------------------                 ------------------------                     ----------------

           IN:                                      IN:
           ---                                      ---
              STO-SS =      227394.2006                STO-SS =           2.4311     STORAGE                          
                 DRN =           0.0000                   DRN =           0.0000     DRN_SYS1                         
                 RIV =      156437.4532                   RIV =        1275.0588     RIV_SYS1                         
                 RIV =           0.0000                   RIV =           0.0000     RIV_SYS2                         
                 RCH =           0.0000                   RCH =           0.0000     RCH_MSW                          

            TOTAL IN =      383831.6537              TOTAL IN =        1277.4899

          OUT:                                     OUT:
          ----                                     ----
              STO-SS =           0.0000                STO-SS =           0.0000     STORAGE                          
                 DRN =        6943.5479                   DRN =           9.4023     DRN_SYS1                         
                 RIV =      356923.9209                   RIV =        1228.3196     RIV_SYS1                         
                 RIV =       19965.4346                   RIV =          39.7931     RIV_SYS2                         
                 RCH =           0.0000                   RCH =           0.0000     RCH_MSW                          

           TOTAL OUT =      383832.9034             TOTAL OUT =        1277.5150

            IN - OUT =          -1.2497              IN - OUT =      -2.5084E-02

 PERCENT DISCREPANCY =          -0.00     PERCENT DISCREPANCY =          -0.00




         TIME SUMMARY AT END OF TIME STEP    1 IN STRESS PERIOD  155
                    SECONDS     MINUTES      HOURS       DAYS        YEARS
                    -----------------------------------------------------------
   TIME STEP LENGTH  86400.      1440.0      24.000      1.0000     2.73785E-03
 STRESS PERIOD TIME  86400.      1440.0      24.000      1.0000     2.73785E-03
         TOTAL TIME 1.33920E+07 2.23200E+05  3720.0      155.00     0.42437    


end timestep


start timestep kper="156" kstp="1" mode="normal"

 #Stressperiod Save Options

 BEGIN READING OUTPUT CONTROL FOR STRESS PERIOD 156
      ALL TIME STEPS WILL BE SAVED
      ALL TIME STEPS WILL BE SAVED

 END READING OUTPUT CONTROL FOR STRESS PERIOD 156


 PROCESSING STORAGE PERIOD DATA
 END PROCESSING STORAGE PERIOD DATA


 STRESS PERIOD 156 IS TRANSIENT


 REUSING DRNS FROM LAST STRESS PERIOD

 REUSING RIVS FROM LAST STRESS PERIOD

 REUSING RIVS FROM LAST STRESS PERIOD

 REUSING RCHS FROM LAST STRESS PERIOD
 UBDSV06 SAVING              DRN IN MODEL GWF_1            PACKAGE GWF_1           CONNECTED TO MODEL GWF_1            PACKAGE DRN_SYS1         ON UNIT   1018 AT TIME STEP      1, STRESS PERIOD    156
 UBDSV06 SAVING              RIV IN MODEL GWF_1            PACKAGE GWF_1           CONNECTED TO MODEL GWF_1            PACKAGE RIV_SYS1         ON UNIT   1018 AT TIME STEP      1, STRESS PERIOD    156
 UBDSV06 SAVING              RIV IN MODEL GWF_1            PACKAGE GWF_1           CONNECTED TO MODEL GWF_1            PACKAGE RIV_SYS2         ON UNIT   1018 AT TIME STEP      1, STRESS PERIOD    156

 HEAD WILL BE SAVED ON UNIT 1017 AT END OF TIME STEP    1, STRESS PERIOD  156


  VOLUME BUDGET FOR ENTIRE MODEL AT END OF TIME STEP    1, STRESS PERIOD 156
  ---------------------------------------------------------------------------------------------------

     CUMULATIVE VOLUME      L**3       RATES FOR THIS TIME STEP      L**3/T          PACKAGE NAME    
     ------------------                 ------------------------                     ----------------

           IN:                                      IN:
           ---                                      ---
              STO-SS =      227396.5047                STO-SS =           2.3042     STORAGE                          
                 DRN =           0.0000                   DRN =           0.0000     DRN_SYS1                         
                 RIV =      157712.5525                   RIV =        1275.0993     RIV_SYS1                         
                 RIV =           0.0000                   RIV =           0.0000     RIV_SYS2                         
                 RCH =           0.0000                   RCH =           0.0000     RCH_MSW                          

            TOTAL IN =      385109.0572              TOTAL IN =        1277.4035

          OUT:                                     OUT:
          ----                                     ----
              STO-SS =           0.0000                STO-SS =           0.0000     STORAGE                          
                 DRN =        6952.9460                   DRN =           9.3981     DRN_SYS1                         
                 RIV =      358152.1653                   RIV =        1228.2443     RIV_SYS1                         
                 RIV =       20005.2194                   RIV =          39.7848     RIV_SYS2                         
                 RCH =           0.0000                   RCH =           0.0000     RCH_MSW                          

           TOTAL OUT =      385110.3307             TOTAL OUT =        1277.4273

            IN - OUT =          -1.2734              IN - OUT =      -2.3753E-02

 PERCENT DISCREPANCY =          -0.00     PERCENT DISCREPANCY =          -0.00




         TIME SUMMARY AT END OF TIME STEP    1 IN STRESS PERIOD  156
                    SECONDS     MINUTES      HOURS       DAYS        YEARS
                    -----------------------------------------------------------
   TIME STEP LENGTH  86400.      1440.0      24.000      1.0000     2.73785E-03
 STRESS PERIOD TIME  86400.      1440.0      24.000      1.0000     2.73785E-03
         TOTAL TIME 1.34784E+07 2.24640E+05  3744.0      156.00     0.42710    


end timestep


start timestep kper="157" kstp="1" mode="normal"

 #Stressperiod Save Options

 BEGIN READING OUTPUT CONTROL FOR STRESS PERIOD 157
      ALL TIME STEPS WILL BE SAVED
      ALL TIME STEPS WILL BE SAVED

 END READING OUTPUT CONTROL FOR STRESS PERIOD 157


 PROCESSING STORAGE PERIOD DATA
 END PROCESSING STORAGE PERIOD DATA


 STRESS PERIOD 157 IS TRANSIENT


 REUSING DRNS FROM LAST STRESS PERIOD

 REUSING RIVS FROM LAST STRESS PERIOD

 REUSING RIVS FROM LAST STRESS PERIOD

 REUSING RCHS FROM LAST STRESS PERIOD
 UBDSV06 SAVING              DRN IN MODEL GWF_1            PACKAGE GWF_1           CONNECTED TO MODEL GWF_1            PACKAGE DRN_SYS1         ON UNIT   1018 AT TIME STEP      1, STRESS PERIOD    157
 UBDSV06 SAVING              RIV IN MODEL GWF_1            PACKAGE GWF_1           CONNECTED TO MODEL GWF_1            PACKAGE RIV_SYS1         ON UNIT   1018 AT TIME STEP      1, STRESS PERIOD    157
 UBDSV06 SAVING              RIV IN MODEL GWF_1            PACKAGE GWF_1           CONNECTED TO MODEL GWF_1            PACKAGE RIV_SYS2         ON UNIT   1018 AT TIME STEP      1, STRESS PERIOD    157

 HEAD WILL BE SAVED ON UNIT 1017 AT END OF TIME STEP    1, STRESS PERIOD  157


  VOLUME BUDGET FOR ENTIRE MODEL AT END OF TIME STEP    1, STRESS PERIOD 157
  ---------------------------------------------------------------------------------------------------

     CUMULATIVE VOLUME      L**3       RATES FOR THIS TIME STEP      L**3/T          PACKAGE NAME    
     ------------------                 ------------------------                     ----------------

           IN:                                      IN:
           ---                                      ---
              STO-SS =      227398.6885                STO-SS =           2.1838     STORAGE                          
                 DRN =           0.0000                   DRN =           0.0000     DRN_SYS1                         
                 RIV =      158987.6903                   RIV =        1275.1378     RIV_SYS1                         
                 RIV =           0.0000                   RIV =           0.0000     RIV_SYS2                         
                 RCH =           0.0000                   RCH =           0.0000     RCH_MSW                          

            TOTAL IN =      386386.3788              TOTAL IN =        1277.3216

          OUT:                                     OUT:
          ----                                     ----
              STO-SS =           0.0000                STO-SS =           0.0000     STORAGE                          
                 DRN =        6962.3402                   DRN =           9.3942     DRN_SYS1                         
                 RIV =      359380.3383                   RIV =        1228.1730     RIV_SYS1                         
                 RIV =       20044.9963                   RIV =          39.7769     RIV_SYS2                         
                 RCH =           0.0000                   RCH =           0.0000     RCH_MSW                          

           TOTAL OUT =      386387.6748             TOTAL OUT =        1277.3441

            IN - OUT =          -1.2959              IN - OUT =      -2.2494E-02

 PERCENT DISCREPANCY =          -0.00     PERCENT DISCREPANCY =          -0.00




         TIME SUMMARY AT END OF TIME STEP    1 IN STRESS PERIOD  157
                    SECONDS     MINUTES      HOURS       DAYS        YEARS
                    -----------------------------------------------------------
   TIME STEP LENGTH  86400.      1440.0      24.000      1.0000     2.73785E-03
 STRESS PERIOD TIME  86400.      1440.0      24.000      1.0000     2.73785E-03
         TOTAL TIME 1.35648E+07 2.26080E+05  3768.0      157.00     0.42984    


end timestep


start timestep kper="158" kstp="1" mode="normal"

 #Stressperiod Save Options

 BEGIN READING OUTPUT CONTROL FOR STRESS PERIOD 158
      ALL TIME STEPS WILL BE SAVED
      ALL TIME STEPS WILL BE SAVED

 END READING OUTPUT CONTROL FOR STRESS PERIOD 158


 PROCESSING STORAGE PERIOD DATA
 END PROCESSING STORAGE PERIOD DATA


 STRESS PERIOD 158 IS TRANSIENT


 REUSING DRNS FROM LAST STRESS PERIOD

 REUSING RIVS FROM LAST STRESS PERIOD

 REUSING RIVS FROM LAST STRESS PERIOD

 REUSING RCHS FROM LAST STRESS PERIOD
 UBDSV06 SAVING              DRN IN MODEL GWF_1            PACKAGE GWF_1           CONNECTED TO MODEL GWF_1            PACKAGE DRN_SYS1         ON UNIT   1018 AT TIME STEP      1, STRESS PERIOD    158
 UBDSV06 SAVING              RIV IN MODEL GWF_1            PACKAGE GWF_1           CONNECTED TO MODEL GWF_1            PACKAGE RIV_SYS1         ON UNIT   1018 AT TIME STEP      1, STRESS PERIOD    158
 UBDSV06 SAVING              RIV IN MODEL GWF_1            PACKAGE GWF_1           CONNECTED TO MODEL GWF_1            PACKAGE RIV_SYS2         ON UNIT   1018 AT TIME STEP      1, STRESS PERIOD    158

 HEAD WILL BE SAVED ON UNIT 1017 AT END OF TIME STEP    1, STRESS PERIOD  158


  VOLUME BUDGET FOR ENTIRE MODEL AT END OF TIME STEP    1, STRESS PERIOD 158
  ---------------------------------------------------------------------------------------------------

     CUMULATIVE VOLUME      L**3       RATES FOR THIS TIME STEP      L**3/T          PACKAGE NAME    
     ------------------                 ------------------------                     ----------------

           IN:                                      IN:
           ---                                      ---
              STO-SS =      227400.7583                STO-SS =           2.0697     STORAGE                          
                 DRN =           0.0000                   DRN =           0.0000     DRN_SYS1                         
                 RIV =      160262.8646                   RIV =        1275.1743     RIV_SYS1                         
                 RIV =           0.0000                   RIV =           0.0000     RIV_SYS2                         
                 RCH =           0.0000                   RCH =           0.0000     RCH_MSW                          

            TOTAL IN =      387663.6229              TOTAL IN =        1277.2440

          OUT:                                     OUT:
          ----                                     ----
              STO-SS =           0.0000                STO-SS =           0.0000     STORAGE                          
                 DRN =        6971.7306                   DRN =           9.3904     DRN_SYS1                         
                 RIV =      360608.4437                   RIV =        1228.1054     RIV_SYS1                         
                 RIV =       20084.7658                   RIV =          39.7695     RIV_SYS2                         
                 RCH =           0.0000                   RCH =           0.0000     RCH_MSW                          

           TOTAL OUT =      387664.9401             TOTAL OUT =        1277.2653

            IN - OUT =          -1.3172              IN - OUT =      -2.1303E-02

 PERCENT DISCREPANCY =          -0.00     PERCENT DISCREPANCY =          -0.00




         TIME SUMMARY AT END OF TIME STEP    1 IN STRESS PERIOD  158
                    SECONDS     MINUTES      HOURS       DAYS        YEARS
                    -----------------------------------------------------------
   TIME STEP LENGTH  86400.      1440.0      24.000      1.0000     2.73785E-03
 STRESS PERIOD TIME  86400.      1440.0      24.000      1.0000     2.73785E-03
         TOTAL TIME 1.36512E+07 2.27520E+05  3792.0      158.00     0.43258    


end timestep


start timestep kper="159" kstp="1" mode="normal"

 #Stressperiod Save Options

 BEGIN READING OUTPUT CONTROL FOR STRESS PERIOD 159
      ALL TIME STEPS WILL BE SAVED
      ALL TIME STEPS WILL BE SAVED

 END READING OUTPUT CONTROL FOR STRESS PERIOD 159


 PROCESSING STORAGE PERIOD DATA
 END PROCESSING STORAGE PERIOD DATA


 STRESS PERIOD 159 IS TRANSIENT


 REUSING DRNS FROM LAST STRESS PERIOD

 REUSING RIVS FROM LAST STRESS PERIOD

 REUSING RIVS FROM LAST STRESS PERIOD

 REUSING RCHS FROM LAST STRESS PERIOD
 UBDSV06 SAVING              DRN IN MODEL GWF_1            PACKAGE GWF_1           CONNECTED TO MODEL GWF_1            PACKAGE DRN_SYS1         ON UNIT   1018 AT TIME STEP      1, STRESS PERIOD    159
 UBDSV06 SAVING              RIV IN MODEL GWF_1            PACKAGE GWF_1           CONNECTED TO MODEL GWF_1            PACKAGE RIV_SYS1         ON UNIT   1018 AT TIME STEP      1, STRESS PERIOD    159
 UBDSV06 SAVING              RIV IN MODEL GWF_1            PACKAGE GWF_1           CONNECTED TO MODEL GWF_1            PACKAGE RIV_SYS2         ON UNIT   1018 AT TIME STEP      1, STRESS PERIOD    159

 HEAD WILL BE SAVED ON UNIT 1017 AT END OF TIME STEP    1, STRESS PERIOD  159


  VOLUME BUDGET FOR ENTIRE MODEL AT END OF TIME STEP    1, STRESS PERIOD 159
  ---------------------------------------------------------------------------------------------------

     CUMULATIVE VOLUME      L**3       RATES FOR THIS TIME STEP      L**3/T          PACKAGE NAME    
     ------------------                 ------------------------                     ----------------

           IN:                                      IN:
           ---                                      ---
              STO-SS =      227402.7199                STO-SS =           1.9616     STORAGE                          
                 DRN =           0.0000                   DRN =           0.0000     DRN_SYS1                         
                 RIV =      161538.0735                   RIV =        1275.2089     RIV_SYS1                         
                 RIV =           0.0000                   RIV =           0.0000     RIV_SYS2                         
                 RCH =           0.0000                   RCH =           0.0000     RCH_MSW                          

            TOTAL IN =      388940.7934              TOTAL IN =        1277.1705

          OUT:                                     OUT:
          ----                                     ----
              STO-SS =           0.0000                STO-SS =           0.0000     STORAGE                          
                 DRN =        6981.1174                   DRN =           9.3868     DRN_SYS1                         
                 RIV =      361836.4851                   RIV =        1228.0414     RIV_SYS1                         
                 RIV =       20124.5283                   RIV =          39.7625     RIV_SYS2                         
                 RCH =           0.0000                   RCH =           0.0000     RCH_MSW                          

           TOTAL OUT =      388942.1308             TOTAL OUT =        1277.1907

            IN - OUT =          -1.3374              IN - OUT =      -2.0177E-02

 PERCENT DISCREPANCY =          -0.00     PERCENT DISCREPANCY =          -0.00




         TIME SUMMARY AT END OF TIME STEP    1 IN STRESS PERIOD  159
                    SECONDS     MINUTES      HOURS       DAYS        YEARS
                    -----------------------------------------------------------
   TIME STEP LENGTH  86400.      1440.0      24.000      1.0000     2.73785E-03
 STRESS PERIOD TIME  86400.      1440.0      24.000      1.0000     2.73785E-03
         TOTAL TIME 1.37376E+07 2.28960E+05  3816.0      159.00     0.43532    


end timestep


start timestep kper="160" kstp="1" mode="normal"

 #Stressperiod Save Options

 BEGIN READING OUTPUT CONTROL FOR STRESS PERIOD 160
      ALL TIME STEPS WILL BE SAVED
      ALL TIME STEPS WILL BE SAVED

 END READING OUTPUT CONTROL FOR STRESS PERIOD 160


 PROCESSING STORAGE PERIOD DATA
 END PROCESSING STORAGE PERIOD DATA


 STRESS PERIOD 160 IS TRANSIENT


 REUSING DRNS FROM LAST STRESS PERIOD

 REUSING RIVS FROM LAST STRESS PERIOD

 REUSING RIVS FROM LAST STRESS PERIOD

 REUSING RCHS FROM LAST STRESS PERIOD
 UBDSV06 SAVING              DRN IN MODEL GWF_1            PACKAGE GWF_1           CONNECTED TO MODEL GWF_1            PACKAGE DRN_SYS1         ON UNIT   1018 AT TIME STEP      1, STRESS PERIOD    160
 UBDSV06 SAVING              RIV IN MODEL GWF_1            PACKAGE GWF_1           CONNECTED TO MODEL GWF_1            PACKAGE RIV_SYS1         ON UNIT   1018 AT TIME STEP      1, STRESS PERIOD    160
 UBDSV06 SAVING              RIV IN MODEL GWF_1            PACKAGE GWF_1           CONNECTED TO MODEL GWF_1            PACKAGE RIV_SYS2         ON UNIT   1018 AT TIME STEP      1, STRESS PERIOD    160

 HEAD WILL BE SAVED ON UNIT 1017 AT END OF TIME STEP    1, STRESS PERIOD  160


  VOLUME BUDGET FOR ENTIRE MODEL AT END OF TIME STEP    1, STRESS PERIOD 160
  ---------------------------------------------------------------------------------------------------

     CUMULATIVE VOLUME      L**3       RATES FOR THIS TIME STEP      L**3/T          PACKAGE NAME    
     ------------------                 ------------------------                     ----------------

           IN:                                      IN:
           ---                                      ---
              STO-SS =      227404.5790                STO-SS =           1.8591     STORAGE                          
                 DRN =           0.0000                   DRN =           0.0000     DRN_SYS1                         
                 RIV =      162813.3151                   RIV =        1275.2416     RIV_SYS1                         
                 RIV =           0.0000                   RIV =           0.0000     RIV_SYS2                         
                 RCH =           0.0000                   RCH =           0.0000     RCH_MSW                          

            TOTAL IN =      390217.8941              TOTAL IN =        1277.1008

          OUT:                                     OUT:
          ----                                     ----
              STO-SS =           0.0000                STO-SS =           0.0000     STORAGE                          
                 DRN =        6990.5009                   DRN =           9.3835     DRN_SYS1                         
                 RIV =      363064.4657                   RIV =        1227.9806     RIV_SYS1                         
                 RIV =       20164.2840                   RIV =          39.7558     RIV_SYS2                         
                 RCH =           0.0000                   RCH =           0.0000     RCH_MSW                          

           TOTAL OUT =      390219.2507             TOTAL OUT =        1277.1199

            IN - OUT =          -1.3565              IN - OUT =      -1.9112E-02

 PERCENT DISCREPANCY =          -0.00     PERCENT DISCREPANCY =          -0.00




         TIME SUMMARY AT END OF TIME STEP    1 IN STRESS PERIOD  160
                    SECONDS     MINUTES      HOURS       DAYS        YEARS
                    -----------------------------------------------------------
   TIME STEP LENGTH  86400.      1440.0      24.000      1.0000     2.73785E-03
 STRESS PERIOD TIME  86400.      1440.0      24.000      1.0000     2.73785E-03
         TOTAL TIME 1.38240E+07 2.30400E+05  3840.0      160.00     0.43806    


end timestep


start timestep kper="161" kstp="1" mode="normal"

 #Stressperiod Save Options

 BEGIN READING OUTPUT CONTROL FOR STRESS PERIOD 161
      ALL TIME STEPS WILL BE SAVED
      ALL TIME STEPS WILL BE SAVED

 END READING OUTPUT CONTROL FOR STRESS PERIOD 161


 PROCESSING STORAGE PERIOD DATA
 END PROCESSING STORAGE PERIOD DATA


 STRESS PERIOD 161 IS TRANSIENT


 REUSING DRNS FROM LAST STRESS PERIOD

 REUSING RIVS FROM LAST STRESS PERIOD

 REUSING RIVS FROM LAST STRESS PERIOD

 REUSING RCHS FROM LAST STRESS PERIOD
 UBDSV06 SAVING              DRN IN MODEL GWF_1            PACKAGE GWF_1           CONNECTED TO MODEL GWF_1            PACKAGE DRN_SYS1         ON UNIT   1018 AT TIME STEP      1, STRESS PERIOD    161
 UBDSV06 SAVING              RIV IN MODEL GWF_1            PACKAGE GWF_1           CONNECTED TO MODEL GWF_1            PACKAGE RIV_SYS1         ON UNIT   1018 AT TIME STEP      1, STRESS PERIOD    161
 UBDSV06 SAVING              RIV IN MODEL GWF_1            PACKAGE GWF_1           CONNECTED TO MODEL GWF_1            PACKAGE RIV_SYS2         ON UNIT   1018 AT TIME STEP      1, STRESS PERIOD    161

 HEAD WILL BE SAVED ON UNIT 1017 AT END OF TIME STEP    1, STRESS PERIOD  161


  VOLUME BUDGET FOR ENTIRE MODEL AT END OF TIME STEP    1, STRESS PERIOD 161
  ---------------------------------------------------------------------------------------------------

     CUMULATIVE VOLUME      L**3       RATES FOR THIS TIME STEP      L**3/T          PACKAGE NAME    
     ------------------                 ------------------------                     ----------------

           IN:                                      IN:
           ---                                      ---
              STO-SS =      227406.3410                STO-SS =           1.7620     STORAGE                          
                 DRN =           0.0000                   DRN =           0.0000     DRN_SYS1                         
                 RIV =      164088.5878                   RIV =        1275.2727     RIV_SYS1                         
                 RIV =           0.0000                   RIV =           0.0000     RIV_SYS2                         
                 RCH =           0.0000                   RCH =           0.0000     RCH_MSW                          

            TOTAL IN =      391494.9289              TOTAL IN =        1277.0347

          OUT:                                     OUT:
          ----                                     ----
              STO-SS =           0.0000                STO-SS =           0.0000     STORAGE                          
                 DRN =        6999.8812                   DRN =           9.3803     DRN_SYS1                         
                 RIV =      364292.3888                   RIV =        1227.9231     RIV_SYS1                         
                 RIV =       20204.0335                   RIV =          39.7495     RIV_SYS2                         
                 RCH =           0.0000                   RCH =           0.0000     RCH_MSW                          

           TOTAL OUT =      391496.3035             TOTAL OUT =        1277.0528

            IN - OUT =          -1.3746              IN - OUT =      -1.8104E-02

 PERCENT DISCREPANCY =          -0.00     PERCENT DISCREPANCY =          -0.00




         TIME SUMMARY AT END OF TIME STEP    1 IN STRESS PERIOD  161
                    SECONDS     MINUTES      HOURS       DAYS        YEARS
                    -----------------------------------------------------------
   TIME STEP LENGTH  86400.      1440.0      24.000      1.0000     2.73785E-03
 STRESS PERIOD TIME  86400.      1440.0      24.000      1.0000     2.73785E-03
         TOTAL TIME 1.39104E+07 2.31840E+05  3864.0      161.00     0.44079    


end timestep


start timestep kper="162" kstp="1" mode="normal"

 #Stressperiod Save Options

 BEGIN READING OUTPUT CONTROL FOR STRESS PERIOD 162
      ALL TIME STEPS WILL BE SAVED
      ALL TIME STEPS WILL BE SAVED

 END READING OUTPUT CONTROL FOR STRESS PERIOD 162


 PROCESSING STORAGE PERIOD DATA
 END PROCESSING STORAGE PERIOD DATA


 STRESS PERIOD 162 IS TRANSIENT


 REUSING DRNS FROM LAST STRESS PERIOD

 REUSING RIVS FROM LAST STRESS PERIOD

 REUSING RIVS FROM LAST STRESS PERIOD

 REUSING RCHS FROM LAST STRESS PERIOD
 UBDSV06 SAVING              DRN IN MODEL GWF_1            PACKAGE GWF_1           CONNECTED TO MODEL GWF_1            PACKAGE DRN_SYS1         ON UNIT   1018 AT TIME STEP      1, STRESS PERIOD    162
 UBDSV06 SAVING              RIV IN MODEL GWF_1            PACKAGE GWF_1           CONNECTED TO MODEL GWF_1            PACKAGE RIV_SYS1         ON UNIT   1018 AT TIME STEP      1, STRESS PERIOD    162
 UBDSV06 SAVING              RIV IN MODEL GWF_1            PACKAGE GWF_1           CONNECTED TO MODEL GWF_1            PACKAGE RIV_SYS2         ON UNIT   1018 AT TIME STEP      1, STRESS PERIOD    162

 HEAD WILL BE SAVED ON UNIT 1017 AT END OF TIME STEP    1, STRESS PERIOD  162


  VOLUME BUDGET FOR ENTIRE MODEL AT END OF TIME STEP    1, STRESS PERIOD 162
  ---------------------------------------------------------------------------------------------------

     CUMULATIVE VOLUME      L**3       RATES FOR THIS TIME STEP      L**3/T          PACKAGE NAME    
     ------------------                 ------------------------                     ----------------

           IN:                                      IN:
           ---                                      ---
              STO-SS =      227408.0110                STO-SS =           1.6699     STORAGE                          
                 DRN =           0.0000                   DRN =           0.0000     DRN_SYS1                         
                 RIV =      165363.8900                   RIV =        1275.3022     RIV_SYS1                         
                 RIV =           0.0000                   RIV =           0.0000     RIV_SYS2                         
                 RCH =           0.0000                   RCH =           0.0000     RCH_MSW                          

            TOTAL IN =      392771.9010              TOTAL IN =        1276.9721

          OUT:                                     OUT:
          ----                                     ----
              STO-SS =           0.0000                STO-SS =           0.0000     STORAGE                          
                 DRN =        7009.2584                   DRN =           9.3772     DRN_SYS1                         
                 RIV =      365520.2574                   RIV =        1227.8686     RIV_SYS1                         
                 RIV =       20243.7770                   RIV =          39.7435     RIV_SYS2                         
                 RCH =           0.0000                   RCH =           0.0000     RCH_MSW                          

           TOTAL OUT =      392773.2927             TOTAL OUT =        1276.9893

            IN - OUT =          -1.3918              IN - OUT =      -1.7149E-02

 PERCENT DISCREPANCY =          -0.00     PERCENT DISCREPANCY =          -0.00




         TIME SUMMARY AT END OF TIME STEP    1 IN STRESS PERIOD  162
                    SECONDS     MINUTES      HOURS       DAYS        YEARS
                    -----------------------------------------------------------
   TIME STEP LENGTH  86400.      1440.0      24.000      1.0000     2.73785E-03
 STRESS PERIOD TIME  86400.      1440.0      24.000      1.0000     2.73785E-03
         TOTAL TIME 1.39968E+07 2.33280E+05  3888.0      162.00     0.44353    


end timestep


start timestep kper="163" kstp="1" mode="normal"

 #Stressperiod Save Options

 BEGIN READING OUTPUT CONTROL FOR STRESS PERIOD 163
      ALL TIME STEPS WILL BE SAVED
      ALL TIME STEPS WILL BE SAVED

 END READING OUTPUT CONTROL FOR STRESS PERIOD 163


 PROCESSING STORAGE PERIOD DATA
 END PROCESSING STORAGE PERIOD DATA


 STRESS PERIOD 163 IS TRANSIENT


 REUSING DRNS FROM LAST STRESS PERIOD

 REUSING RIVS FROM LAST STRESS PERIOD

 REUSING RIVS FROM LAST STRESS PERIOD

 REUSING RCHS FROM LAST STRESS PERIOD
 UBDSV06 SAVING              DRN IN MODEL GWF_1            PACKAGE GWF_1           CONNECTED TO MODEL GWF_1            PACKAGE DRN_SYS1         ON UNIT   1018 AT TIME STEP      1, STRESS PERIOD    163
 UBDSV06 SAVING              RIV IN MODEL GWF_1            PACKAGE GWF_1           CONNECTED TO MODEL GWF_1            PACKAGE RIV_SYS1         ON UNIT   1018 AT TIME STEP      1, STRESS PERIOD    163
 UBDSV06 SAVING              RIV IN MODEL GWF_1            PACKAGE GWF_1           CONNECTED TO MODEL GWF_1            PACKAGE RIV_SYS2         ON UNIT   1018 AT TIME STEP      1, STRESS PERIOD    163

 HEAD WILL BE SAVED ON UNIT 1017 AT END OF TIME STEP    1, STRESS PERIOD  163


  VOLUME BUDGET FOR ENTIRE MODEL AT END OF TIME STEP    1, STRESS PERIOD 163
  ---------------------------------------------------------------------------------------------------

     CUMULATIVE VOLUME      L**3       RATES FOR THIS TIME STEP      L**3/T          PACKAGE NAME    
     ------------------                 ------------------------                     ----------------

           IN:                                      IN:
           ---                                      ---
              STO-SS =      227409.5936                STO-SS =           1.5826     STORAGE                          
                 DRN =           0.0000                   DRN =           0.0000     DRN_SYS1                         
                 RIV =      166639.2201                   RIV =        1275.3301     RIV_SYS1                         
                 RIV =           0.0000                   RIV =           0.0000     RIV_SYS2                         
                 RCH =           0.0000                   RCH =           0.0000     RCH_MSW                          

            TOTAL IN =      394048.8137              TOTAL IN =        1276.9128

          OUT:                                     OUT:
          ----                                     ----
              STO-SS =           0.0000                STO-SS =           0.0000     STORAGE                          
                 DRN =        7018.6328                   DRN =           9.3744     DRN_SYS1                         
                 RIV =      366748.0743                   RIV =        1227.8169     RIV_SYS1                         
                 RIV =       20283.5148                   RIV =          39.7378     RIV_SYS2                         
                 RCH =           0.0000                   RCH =           0.0000     RCH_MSW                          

           TOTAL OUT =      394050.2218             TOTAL OUT =        1276.9290

            IN - OUT =          -1.4080              IN - OUT =      -1.6246E-02

 PERCENT DISCREPANCY =          -0.00     PERCENT DISCREPANCY =          -0.00




         TIME SUMMARY AT END OF TIME STEP    1 IN STRESS PERIOD  163
                    SECONDS     MINUTES      HOURS       DAYS        YEARS
                    -----------------------------------------------------------
   TIME STEP LENGTH  86400.      1440.0      24.000      1.0000     2.73785E-03
 STRESS PERIOD TIME  86400.      1440.0      24.000      1.0000     2.73785E-03
         TOTAL TIME 1.40832E+07 2.34720E+05  3912.0      163.00     0.44627    


end timestep


start timestep kper="164" kstp="1" mode="normal"

 #Stressperiod Save Options

 BEGIN READING OUTPUT CONTROL FOR STRESS PERIOD 164
      ALL TIME STEPS WILL BE SAVED
      ALL TIME STEPS WILL BE SAVED

 END READING OUTPUT CONTROL FOR STRESS PERIOD 164


 PROCESSING STORAGE PERIOD DATA
 END PROCESSING STORAGE PERIOD DATA


 STRESS PERIOD 164 IS TRANSIENT


 REUSING DRNS FROM LAST STRESS PERIOD

 REUSING RIVS FROM LAST STRESS PERIOD

 REUSING RIVS FROM LAST STRESS PERIOD

 REUSING RCHS FROM LAST STRESS PERIOD
 UBDSV06 SAVING              DRN IN MODEL GWF_1            PACKAGE GWF_1           CONNECTED TO MODEL GWF_1            PACKAGE DRN_SYS1         ON UNIT   1018 AT TIME STEP      1, STRESS PERIOD    164
 UBDSV06 SAVING              RIV IN MODEL GWF_1            PACKAGE GWF_1           CONNECTED TO MODEL GWF_1            PACKAGE RIV_SYS1         ON UNIT   1018 AT TIME STEP      1, STRESS PERIOD    164
 UBDSV06 SAVING              RIV IN MODEL GWF_1            PACKAGE GWF_1           CONNECTED TO MODEL GWF_1            PACKAGE RIV_SYS2         ON UNIT   1018 AT TIME STEP      1, STRESS PERIOD    164

 HEAD WILL BE SAVED ON UNIT 1017 AT END OF TIME STEP    1, STRESS PERIOD  164


  VOLUME BUDGET FOR ENTIRE MODEL AT END OF TIME STEP    1, STRESS PERIOD 164
  ---------------------------------------------------------------------------------------------------

     CUMULATIVE VOLUME      L**3       RATES FOR THIS TIME STEP      L**3/T          PACKAGE NAME    
     ------------------                 ------------------------                     ----------------

           IN:                                      IN:
           ---                                      ---
              STO-SS =      227411.0935                STO-SS =           1.4999     STORAGE                          
                 DRN =           0.0000                   DRN =           0.0000     DRN_SYS1                         
                 RIV =      167914.5768                   RIV =        1275.3566     RIV_SYS1                         
                 RIV =           0.0000                   RIV =           0.0000     RIV_SYS2                         
                 RCH =           0.0000                   RCH =           0.0000     RCH_MSW                          

            TOTAL IN =      395325.6703              TOTAL IN =        1276.8565

          OUT:                                     OUT:
          ----                                     ----
              STO-SS =           0.0000                STO-SS =           0.0000     STORAGE                          
                 DRN =        7028.0044                   DRN =           9.3716     DRN_SYS1                         
                 RIV =      367975.8421                   RIV =        1227.7679     RIV_SYS1                         
                 RIV =       20323.2472                   RIV =          39.7324     RIV_SYS2                         
                 RCH =           0.0000                   RCH =           0.0000     RCH_MSW                          

           TOTAL OUT =      395327.0937             TOTAL OUT =        1276.8719

            IN - OUT =          -1.4234              IN - OUT =      -1.5391E-02

 PERCENT DISCREPANCY =          -0.00     PERCENT DISCREPANCY =          -0.00




         TIME SUMMARY AT END OF TIME STEP    1 IN STRESS PERIOD  164
                    SECONDS     MINUTES      HOURS       DAYS        YEARS
                    -----------------------------------------------------------
   TIME STEP LENGTH  86400.      1440.0      24.000      1.0000     2.73785E-03
 STRESS PERIOD TIME  86400.      1440.0      24.000      1.0000     2.73785E-03
         TOTAL TIME 1.41696E+07 2.36160E+05  3936.0      164.00     0.44901    


end timestep


start timestep kper="165" kstp="1" mode="normal"

 #Stressperiod Save Options

 BEGIN READING OUTPUT CONTROL FOR STRESS PERIOD 165
      ALL TIME STEPS WILL BE SAVED
      ALL TIME STEPS WILL BE SAVED

 END READING OUTPUT CONTROL FOR STRESS PERIOD 165


 PROCESSING STORAGE PERIOD DATA
 END PROCESSING STORAGE PERIOD DATA


 STRESS PERIOD 165 IS TRANSIENT


 REUSING DRNS FROM LAST STRESS PERIOD

 REUSING RIVS FROM LAST STRESS PERIOD

 REUSING RIVS FROM LAST STRESS PERIOD

 REUSING RCHS FROM LAST STRESS PERIOD
 UBDSV06 SAVING              DRN IN MODEL GWF_1            PACKAGE GWF_1           CONNECTED TO MODEL GWF_1            PACKAGE DRN_SYS1         ON UNIT   1018 AT TIME STEP      1, STRESS PERIOD    165
 UBDSV06 SAVING              RIV IN MODEL GWF_1            PACKAGE GWF_1           CONNECTED TO MODEL GWF_1            PACKAGE RIV_SYS1         ON UNIT   1018 AT TIME STEP      1, STRESS PERIOD    165
 UBDSV06 SAVING              RIV IN MODEL GWF_1            PACKAGE GWF_1           CONNECTED TO MODEL GWF_1            PACKAGE RIV_SYS2         ON UNIT   1018 AT TIME STEP      1, STRESS PERIOD    165

 HEAD WILL BE SAVED ON UNIT 1017 AT END OF TIME STEP    1, STRESS PERIOD  165


  VOLUME BUDGET FOR ENTIRE MODEL AT END OF TIME STEP    1, STRESS PERIOD 165
  ---------------------------------------------------------------------------------------------------

     CUMULATIVE VOLUME      L**3       RATES FOR THIS TIME STEP      L**3/T          PACKAGE NAME    
     ------------------                 ------------------------                     ----------------

           IN:                                      IN:
           ---                                      ---
              STO-SS =      227412.5151                STO-SS =           1.4215     STORAGE                          
                 DRN =           0.0000                   DRN =           0.0000     DRN_SYS1                         
                 RIV =      169189.9585                   RIV =        1275.3817     RIV_SYS1                         
                 RIV =           0.0000                   RIV =           0.0000     RIV_SYS2                         
                 RCH =           0.0000                   RCH =           0.0000     RCH_MSW                          

            TOTAL IN =      396602.4735              TOTAL IN =        1276.8033

          OUT:                                     OUT:
          ----                                     ----
              STO-SS =           0.0000                STO-SS =           0.0000     STORAGE                          
                 DRN =        7037.3734                   DRN =           9.3690     DRN_SYS1                         
                 RIV =      369203.5636                   RIV =        1227.7215     RIV_SYS1                         
                 RIV =       20362.9745                   RIV =          39.7273     RIV_SYS2                         
                 RCH =           0.0000                   RCH =           0.0000     RCH_MSW                          

           TOTAL OUT =      396603.9115             TOTAL OUT =        1276.8178

            IN - OUT =          -1.4380              IN - OUT =      -1.4581E-02

 PERCENT DISCREPANCY =          -0.00     PERCENT DISCREPANCY =          -0.00




         TIME SUMMARY AT END OF TIME STEP    1 IN STRESS PERIOD  165
                    SECONDS     MINUTES      HOURS       DAYS        YEARS
                    -----------------------------------------------------------
   TIME STEP LENGTH  86400.      1440.0      24.000      1.0000     2.73785E-03
 STRESS PERIOD TIME  86400.      1440.0      24.000      1.0000     2.73785E-03
         TOTAL TIME 1.42560E+07 2.37600E+05  3960.0      165.00     0.45175    


end timestep


start timestep kper="166" kstp="1" mode="normal"

 #Stressperiod Save Options

 BEGIN READING OUTPUT CONTROL FOR STRESS PERIOD 166
      ALL TIME STEPS WILL BE SAVED
      ALL TIME STEPS WILL BE SAVED

 END READING OUTPUT CONTROL FOR STRESS PERIOD 166


 PROCESSING STORAGE PERIOD DATA
 END PROCESSING STORAGE PERIOD DATA


 STRESS PERIOD 166 IS TRANSIENT


 REUSING DRNS FROM LAST STRESS PERIOD

 REUSING RIVS FROM LAST STRESS PERIOD

 REUSING RIVS FROM LAST STRESS PERIOD

 REUSING RCHS FROM LAST STRESS PERIOD
 UBDSV06 SAVING              DRN IN MODEL GWF_1            PACKAGE GWF_1           CONNECTED TO MODEL GWF_1            PACKAGE DRN_SYS1         ON UNIT   1018 AT TIME STEP      1, STRESS PERIOD    166
 UBDSV06 SAVING              RIV IN MODEL GWF_1            PACKAGE GWF_1           CONNECTED TO MODEL GWF_1            PACKAGE RIV_SYS1         ON UNIT   1018 AT TIME STEP      1, STRESS PERIOD    166
 UBDSV06 SAVING              RIV IN MODEL GWF_1            PACKAGE GWF_1           CONNECTED TO MODEL GWF_1            PACKAGE RIV_SYS2         ON UNIT   1018 AT TIME STEP      1, STRESS PERIOD    166

 HEAD WILL BE SAVED ON UNIT 1017 AT END OF TIME STEP    1, STRESS PERIOD  166


  VOLUME BUDGET FOR ENTIRE MODEL AT END OF TIME STEP    1, STRESS PERIOD 166
  ---------------------------------------------------------------------------------------------------

     CUMULATIVE VOLUME      L**3       RATES FOR THIS TIME STEP      L**3/T          PACKAGE NAME    
     ------------------                 ------------------------                     ----------------

           IN:                                      IN:
           ---                                      ---
              STO-SS =      227413.8623                STO-SS =           1.3472     STORAGE                          
                 DRN =           0.0000                   DRN =           0.0000     DRN_SYS1                         
                 RIV =      170465.3640                   RIV =        1275.4055     RIV_SYS1                         
                 RIV =           0.0000                   RIV =           0.0000     RIV_SYS2                         
                 RCH =           0.0000                   RCH =           0.0000     RCH_MSW                          

            TOTAL IN =      397879.2263              TOTAL IN =        1276.7528

          OUT:                                     OUT:
          ----                                     ----
              STO-SS =           0.0000                STO-SS =           0.0000     STORAGE                          
                 DRN =        7046.7400                   DRN =           9.3666     DRN_SYS1                         
                 RIV =      370431.2411                   RIV =        1227.6775     RIV_SYS1                         
                 RIV =       20402.6970                   RIV =          39.7225     RIV_SYS2                         
                 RCH =           0.0000                   RCH =           0.0000     RCH_MSW                          

           TOTAL OUT =      397880.6781             TOTAL OUT =        1276.7666

            IN - OUT =          -1.4518              IN - OUT =      -1.3814E-02

 PERCENT DISCREPANCY =          -0.00     PERCENT DISCREPANCY =          -0.00




         TIME SUMMARY AT END OF TIME STEP    1 IN STRESS PERIOD  166
                    SECONDS     MINUTES      HOURS       DAYS        YEARS
                    -----------------------------------------------------------
   TIME STEP LENGTH  86400.      1440.0      24.000      1.0000     2.73785E-03
 STRESS PERIOD TIME  86400.      1440.0      24.000      1.0000     2.73785E-03
         TOTAL TIME 1.43424E+07 2.39040E+05  3984.0      166.00     0.45448    


end timestep


start timestep kper="167" kstp="1" mode="normal"

 #Stressperiod Save Options

 BEGIN READING OUTPUT CONTROL FOR STRESS PERIOD 167
      ALL TIME STEPS WILL BE SAVED
      ALL TIME STEPS WILL BE SAVED

 END READING OUTPUT CONTROL FOR STRESS PERIOD 167


 PROCESSING STORAGE PERIOD DATA
 END PROCESSING STORAGE PERIOD DATA


 STRESS PERIOD 167 IS TRANSIENT


 REUSING DRNS FROM LAST STRESS PERIOD

 REUSING RIVS FROM LAST STRESS PERIOD

 REUSING RIVS FROM LAST STRESS PERIOD

 REUSING RCHS FROM LAST STRESS PERIOD
 UBDSV06 SAVING              DRN IN MODEL GWF_1            PACKAGE GWF_1           CONNECTED TO MODEL GWF_1            PACKAGE DRN_SYS1         ON UNIT   1018 AT TIME STEP      1, STRESS PERIOD    167
 UBDSV06 SAVING              RIV IN MODEL GWF_1            PACKAGE GWF_1           CONNECTED TO MODEL GWF_1            PACKAGE RIV_SYS1         ON UNIT   1018 AT TIME STEP      1, STRESS PERIOD    167
 UBDSV06 SAVING              RIV IN MODEL GWF_1            PACKAGE GWF_1           CONNECTED TO MODEL GWF_1            PACKAGE RIV_SYS2         ON UNIT   1018 AT TIME STEP      1, STRESS PERIOD    167

 HEAD WILL BE SAVED ON UNIT 1017 AT END OF TIME STEP    1, STRESS PERIOD  167


  VOLUME BUDGET FOR ENTIRE MODEL AT END OF TIME STEP    1, STRESS PERIOD 167
  ---------------------------------------------------------------------------------------------------

     CUMULATIVE VOLUME      L**3       RATES FOR THIS TIME STEP      L**3/T          PACKAGE NAME    
     ------------------                 ------------------------                     ----------------

           IN:                                      IN:
           ---                                      ---
              STO-SS =      227415.1391                STO-SS =           1.2768     STORAGE                          
                 DRN =           0.0000                   DRN =           0.0000     DRN_SYS1                         
                 RIV =      171740.7921                   RIV =        1275.4281     RIV_SYS1                         
                 RIV =           0.0000                   RIV =           0.0000     RIV_SYS2                         
                 RCH =           0.0000                   RCH =           0.0000     RCH_MSW                          

            TOTAL IN =      399155.9312              TOTAL IN =        1276.7049

          OUT:                                     OUT:
          ----                                     ----
              STO-SS =           0.0000                STO-SS =           0.0000     STORAGE                          
                 DRN =        7056.1043                   DRN =           9.3643     DRN_SYS1                         
                 RIV =      371658.8768                   RIV =        1227.6358     RIV_SYS1                         
                 RIV =       20442.4150                   RIV =          39.7179     RIV_SYS2                         
                 RCH =           0.0000                   RCH =           0.0000     RCH_MSW                          

           TOTAL OUT =      399157.3961             TOTAL OUT =        1276.7180

            IN - OUT =          -1.4649              IN - OUT =      -1.3088E-02

 PERCENT DISCREPANCY =          -0.00     PERCENT DISCREPANCY =          -0.00




         TIME SUMMARY AT END OF TIME STEP    1 IN STRESS PERIOD  167
                    SECONDS     MINUTES      HOURS       DAYS        YEARS
                    -----------------------------------------------------------
   TIME STEP LENGTH  86400.      1440.0      24.000      1.0000     2.73785E-03
 STRESS PERIOD TIME  86400.      1440.0      24.000      1.0000     2.73785E-03
         TOTAL TIME 1.44288E+07 2.40480E+05  4008.0      167.00     0.45722    


end timestep


start timestep kper="168" kstp="1" mode="normal"

 #Stressperiod Save Options

 BEGIN READING OUTPUT CONTROL FOR STRESS PERIOD 168
      ALL TIME STEPS WILL BE SAVED
      ALL TIME STEPS WILL BE SAVED

 END READING OUTPUT CONTROL FOR STRESS PERIOD 168


 PROCESSING STORAGE PERIOD DATA
 END PROCESSING STORAGE PERIOD DATA


 STRESS PERIOD 168 IS TRANSIENT


 REUSING DRNS FROM LAST STRESS PERIOD

 REUSING RIVS FROM LAST STRESS PERIOD

 REUSING RIVS FROM LAST STRESS PERIOD

 REUSING RCHS FROM LAST STRESS PERIOD
 UBDSV06 SAVING              DRN IN MODEL GWF_1            PACKAGE GWF_1           CONNECTED TO MODEL GWF_1            PACKAGE DRN_SYS1         ON UNIT   1018 AT TIME STEP      1, STRESS PERIOD    168
 UBDSV06 SAVING              RIV IN MODEL GWF_1            PACKAGE GWF_1           CONNECTED TO MODEL GWF_1            PACKAGE RIV_SYS1         ON UNIT   1018 AT TIME STEP      1, STRESS PERIOD    168
 UBDSV06 SAVING              RIV IN MODEL GWF_1            PACKAGE GWF_1           CONNECTED TO MODEL GWF_1            PACKAGE RIV_SYS2         ON UNIT   1018 AT TIME STEP      1, STRESS PERIOD    168

 HEAD WILL BE SAVED ON UNIT 1017 AT END OF TIME STEP    1, STRESS PERIOD  168


  VOLUME BUDGET FOR ENTIRE MODEL AT END OF TIME STEP    1, STRESS PERIOD 168
  ---------------------------------------------------------------------------------------------------

     CUMULATIVE VOLUME      L**3       RATES FOR THIS TIME STEP      L**3/T          PACKAGE NAME    
     ------------------                 ------------------------                     ----------------

           IN:                                      IN:
           ---                                      ---
              STO-SS =      227416.3492                STO-SS =           1.2101     STORAGE                          
                 DRN =           0.0000                   DRN =           0.0000     DRN_SYS1                         
                 RIV =      173016.2415                   RIV =        1275.4495     RIV_SYS1                         
                 RIV =           0.0000                   RIV =           0.0000     RIV_SYS2                         
                 RCH =           0.0000                   RCH =           0.0000     RCH_MSW                          

            TOTAL IN =      400432.5907              TOTAL IN =        1276.6595

          OUT:                                     OUT:
          ----                                     ----
              STO-SS =           0.0000                STO-SS =           0.0000     STORAGE                          
                 DRN =        7065.4663                   DRN =           9.3621     DRN_SYS1                         
                 RIV =      372886.4731                   RIV =        1227.5962     RIV_SYS1                         
                 RIV =       20482.1286                   RIV =          39.7136     RIV_SYS2                         
                 RCH =           0.0000                   RCH =           0.0000     RCH_MSW                          

           TOTAL OUT =      400434.0680             TOTAL OUT =        1276.6719

            IN - OUT =          -1.4773              IN - OUT =      -1.2400E-02

 PERCENT DISCREPANCY =          -0.00     PERCENT DISCREPANCY =          -0.00




         TIME SUMMARY AT END OF TIME STEP    1 IN STRESS PERIOD  168
                    SECONDS     MINUTES      HOURS       DAYS        YEARS
                    -----------------------------------------------------------
   TIME STEP LENGTH  86400.      1440.0      24.000      1.0000     2.73785E-03
 STRESS PERIOD TIME  86400.      1440.0      24.000      1.0000     2.73785E-03
         TOTAL TIME 1.45152E+07 2.41920E+05  4032.0      168.00     0.45996    


end timestep


start timestep kper="169" kstp="1" mode="normal"

 #Stressperiod Save Options

 BEGIN READING OUTPUT CONTROL FOR STRESS PERIOD 169
      ALL TIME STEPS WILL BE SAVED
      ALL TIME STEPS WILL BE SAVED

 END READING OUTPUT CONTROL FOR STRESS PERIOD 169


 PROCESSING STORAGE PERIOD DATA
 END PROCESSING STORAGE PERIOD DATA


 STRESS PERIOD 169 IS TRANSIENT


 REUSING DRNS FROM LAST STRESS PERIOD

 REUSING RIVS FROM LAST STRESS PERIOD

 REUSING RIVS FROM LAST STRESS PERIOD

 REUSING RCHS FROM LAST STRESS PERIOD
 UBDSV06 SAVING              DRN IN MODEL GWF_1            PACKAGE GWF_1           CONNECTED TO MODEL GWF_1            PACKAGE DRN_SYS1         ON UNIT   1018 AT TIME STEP      1, STRESS PERIOD    169
 UBDSV06 SAVING              RIV IN MODEL GWF_1            PACKAGE GWF_1           CONNECTED TO MODEL GWF_1            PACKAGE RIV_SYS1         ON UNIT   1018 AT TIME STEP      1, STRESS PERIOD    169
 UBDSV06 SAVING              RIV IN MODEL GWF_1            PACKAGE GWF_1           CONNECTED TO MODEL GWF_1            PACKAGE RIV_SYS2         ON UNIT   1018 AT TIME STEP      1, STRESS PERIOD    169

 HEAD WILL BE SAVED ON UNIT 1017 AT END OF TIME STEP    1, STRESS PERIOD  169


  VOLUME BUDGET FOR ENTIRE MODEL AT END OF TIME STEP    1, STRESS PERIOD 169
  ---------------------------------------------------------------------------------------------------

     CUMULATIVE VOLUME      L**3       RATES FOR THIS TIME STEP      L**3/T          PACKAGE NAME    
     ------------------                 ------------------------                     ----------------

           IN:                                      IN:
           ---                                      ---
              STO-SS =      227417.4960                STO-SS =           1.1468     STORAGE                          
                 DRN =           0.0000                   DRN =           0.0000     DRN_SYS1                         
                 RIV =      174291.7112                   RIV =        1275.4697     RIV_SYS1                         
                 RIV =           0.0000                   RIV =           0.0000     RIV_SYS2                         
                 RCH =           0.0000                   RCH =           0.0000     RCH_MSW                          

            TOTAL IN =      401709.2072              TOTAL IN =        1276.6165

          OUT:                                     OUT:
          ----                                     ----
              STO-SS =           0.0000                STO-SS =           0.0000     STORAGE                          
                 DRN =        7074.8263                   DRN =           9.3600     DRN_SYS1                         
                 RIV =      374114.0319                   RIV =        1227.5588     RIV_SYS1                         
                 RIV =       20521.8381                   RIV =          39.7095     RIV_SYS2                         
                 RCH =           0.0000                   RCH =           0.0000     RCH_MSW                          

           TOTAL OUT =      401710.6963             TOTAL OUT =        1276.6283

            IN - OUT =          -1.4890              IN - OUT =      -1.1749E-02

 PERCENT DISCREPANCY =          -0.00     PERCENT DISCREPANCY =          -0.00




         TIME SUMMARY AT END OF TIME STEP    1 IN STRESS PERIOD  169
                    SECONDS     MINUTES      HOURS       DAYS        YEARS
                    -----------------------------------------------------------
   TIME STEP LENGTH  86400.      1440.0      24.000      1.0000     2.73785E-03
 STRESS PERIOD TIME  86400.      1440.0      24.000      1.0000     2.73785E-03
         TOTAL TIME 1.46016E+07 2.43360E+05  4056.0      169.00     0.46270    


end timestep


start timestep kper="170" kstp="1" mode="normal"

 #Stressperiod Save Options

 BEGIN READING OUTPUT CONTROL FOR STRESS PERIOD 170
      ALL TIME STEPS WILL BE SAVED
      ALL TIME STEPS WILL BE SAVED

 END READING OUTPUT CONTROL FOR STRESS PERIOD 170


 PROCESSING STORAGE PERIOD DATA
 END PROCESSING STORAGE PERIOD DATA


 STRESS PERIOD 170 IS TRANSIENT


 REUSING DRNS FROM LAST STRESS PERIOD

 REUSING RIVS FROM LAST STRESS PERIOD

 REUSING RIVS FROM LAST STRESS PERIOD

 REUSING RCHS FROM LAST STRESS PERIOD
 UBDSV06 SAVING              DRN IN MODEL GWF_1            PACKAGE GWF_1           CONNECTED TO MODEL GWF_1            PACKAGE DRN_SYS1         ON UNIT   1018 AT TIME STEP      1, STRESS PERIOD    170
 UBDSV06 SAVING              RIV IN MODEL GWF_1            PACKAGE GWF_1           CONNECTED TO MODEL GWF_1            PACKAGE RIV_SYS1         ON UNIT   1018 AT TIME STEP      1, STRESS PERIOD    170
 UBDSV06 SAVING              RIV IN MODEL GWF_1            PACKAGE GWF_1           CONNECTED TO MODEL GWF_1            PACKAGE RIV_SYS2         ON UNIT   1018 AT TIME STEP      1, STRESS PERIOD    170

 HEAD WILL BE SAVED ON UNIT 1017 AT END OF TIME STEP    1, STRESS PERIOD  170


  VOLUME BUDGET FOR ENTIRE MODEL AT END OF TIME STEP    1, STRESS PERIOD 170
  ---------------------------------------------------------------------------------------------------

     CUMULATIVE VOLUME      L**3       RATES FOR THIS TIME STEP      L**3/T          PACKAGE NAME    
     ------------------                 ------------------------                     ----------------

           IN:                                      IN:
           ---                                      ---
              STO-SS =      227418.5829                STO-SS =           1.0869     STORAGE                          
                 DRN =           0.0000                   DRN =           0.0000     DRN_SYS1                         
                 RIV =      175567.2002                   RIV =        1275.4889     RIV_SYS1                         
                 RIV =           0.0000                   RIV =           0.0000     RIV_SYS2                         
                 RCH =           0.0000                   RCH =           0.0000     RCH_MSW                          

            TOTAL IN =      402985.7830              TOTAL IN =        1276.5758

          OUT:                                     OUT:
          ----                                     ----
              STO-SS =           0.0000                STO-SS =           0.0000     STORAGE                          
                 DRN =        7084.1843                   DRN =           9.3580     DRN_SYS1                         
                 RIV =      375341.5552                   RIV =        1227.5233     RIV_SYS1                         
                 RIV =       20561.5438                   RIV =          39.7056     RIV_SYS2                         
                 RCH =           0.0000                   RCH =           0.0000     RCH_MSW                          

           TOTAL OUT =      402987.2832             TOTAL OUT =        1276.5869

            IN - OUT =          -1.5002              IN - OUT =      -1.1132E-02

 PERCENT DISCREPANCY =          -0.00     PERCENT DISCREPANCY =          -0.00




         TIME SUMMARY AT END OF TIME STEP    1 IN STRESS PERIOD  170
                    SECONDS     MINUTES      HOURS       DAYS        YEARS
                    -----------------------------------------------------------
   TIME STEP LENGTH  86400.      1440.0      24.000      1.0000     2.73785E-03
 STRESS PERIOD TIME  86400.      1440.0      24.000      1.0000     2.73785E-03
         TOTAL TIME 1.46880E+07 2.44800E+05  4080.0      170.00     0.46543    


end timestep


start timestep kper="171" kstp="1" mode="normal"

 #Stressperiod Save Options

 BEGIN READING OUTPUT CONTROL FOR STRESS PERIOD 171
      ALL TIME STEPS WILL BE SAVED
      ALL TIME STEPS WILL BE SAVED

 END READING OUTPUT CONTROL FOR STRESS PERIOD 171


 PROCESSING STORAGE PERIOD DATA
 END PROCESSING STORAGE PERIOD DATA


 STRESS PERIOD 171 IS TRANSIENT


 REUSING DRNS FROM LAST STRESS PERIOD

 REUSING RIVS FROM LAST STRESS PERIOD

 REUSING RIVS FROM LAST STRESS PERIOD

 REUSING RCHS FROM LAST STRESS PERIOD
 UBDSV06 SAVING              DRN IN MODEL GWF_1            PACKAGE GWF_1           CONNECTED TO MODEL GWF_1            PACKAGE DRN_SYS1         ON UNIT   1018 AT TIME STEP      1, STRESS PERIOD    171
 UBDSV06 SAVING              RIV IN MODEL GWF_1            PACKAGE GWF_1           CONNECTED TO MODEL GWF_1            PACKAGE RIV_SYS1         ON UNIT   1018 AT TIME STEP      1, STRESS PERIOD    171
 UBDSV06 SAVING              RIV IN MODEL GWF_1            PACKAGE GWF_1           CONNECTED TO MODEL GWF_1            PACKAGE RIV_SYS2         ON UNIT   1018 AT TIME STEP      1, STRESS PERIOD    171

 HEAD WILL BE SAVED ON UNIT 1017 AT END OF TIME STEP    1, STRESS PERIOD  171


  VOLUME BUDGET FOR ENTIRE MODEL AT END OF TIME STEP    1, STRESS PERIOD 171
  ---------------------------------------------------------------------------------------------------

     CUMULATIVE VOLUME      L**3       RATES FOR THIS TIME STEP      L**3/T          PACKAGE NAME    
     ------------------                 ------------------------                     ----------------

           IN:                                      IN:
           ---                                      ---
              STO-SS =      227419.6129                STO-SS =           1.0300     STORAGE                          
                 DRN =           0.0000                   DRN =           0.0000     DRN_SYS1                         
                 RIV =      176842.7073                   RIV =        1275.5071     RIV_SYS1                         
                 RIV =           0.0000                   RIV =           0.0000     RIV_SYS2                         
                 RCH =           0.0000                   RCH =           0.0000     RCH_MSW                          

            TOTAL IN =      404262.3202              TOTAL IN =        1276.5372

          OUT:                                     OUT:
          ----                                     ----
              STO-SS =           0.0000                STO-SS =           0.0000     STORAGE                          
                 DRN =        7093.5404                   DRN =           9.3561     DRN_SYS1                         
                 RIV =      376569.0448                   RIV =        1227.4897     RIV_SYS1                         
                 RIV =       20601.2457                   RIV =          39.7020     RIV_SYS2                         
                 RCH =           0.0000                   RCH =           0.0000     RCH_MSW                          

           TOTAL OUT =      404263.8310             TOTAL OUT =        1276.5477

            IN - OUT =          -1.5107              IN - OUT =      -1.0547E-02

 PERCENT DISCREPANCY =          -0.00     PERCENT DISCREPANCY =          -0.00




         TIME SUMMARY AT END OF TIME STEP    1 IN STRESS PERIOD  171
                    SECONDS     MINUTES      HOURS       DAYS        YEARS
                    -----------------------------------------------------------
   TIME STEP LENGTH  86400.      1440.0      24.000      1.0000     2.73785E-03
 STRESS PERIOD TIME  86400.      1440.0      24.000      1.0000     2.73785E-03
         TOTAL TIME 1.47744E+07 2.46240E+05  4104.0      171.00     0.46817    


end timestep


start timestep kper="172" kstp="1" mode="normal"

 #Stressperiod Save Options

 BEGIN READING OUTPUT CONTROL FOR STRESS PERIOD 172
      ALL TIME STEPS WILL BE SAVED
      ALL TIME STEPS WILL BE SAVED

 END READING OUTPUT CONTROL FOR STRESS PERIOD 172


 PROCESSING STORAGE PERIOD DATA
 END PROCESSING STORAGE PERIOD DATA


 STRESS PERIOD 172 IS TRANSIENT


 REUSING DRNS FROM LAST STRESS PERIOD

 REUSING RIVS FROM LAST STRESS PERIOD

 REUSING RIVS FROM LAST STRESS PERIOD

 REUSING RCHS FROM LAST STRESS PERIOD
 UBDSV06 SAVING              DRN IN MODEL GWF_1            PACKAGE GWF_1           CONNECTED TO MODEL GWF_1            PACKAGE DRN_SYS1         ON UNIT   1018 AT TIME STEP      1, STRESS PERIOD    172
 UBDSV06 SAVING              RIV IN MODEL GWF_1            PACKAGE GWF_1           CONNECTED TO MODEL GWF_1            PACKAGE RIV_SYS1         ON UNIT   1018 AT TIME STEP      1, STRESS PERIOD    172
 UBDSV06 SAVING              RIV IN MODEL GWF_1            PACKAGE GWF_1           CONNECTED TO MODEL GWF_1            PACKAGE RIV_SYS2         ON UNIT   1018 AT TIME STEP      1, STRESS PERIOD    172

 HEAD WILL BE SAVED ON UNIT 1017 AT END OF TIME STEP    1, STRESS PERIOD  172


  VOLUME BUDGET FOR ENTIRE MODEL AT END OF TIME STEP    1, STRESS PERIOD 172
  ---------------------------------------------------------------------------------------------------

     CUMULATIVE VOLUME      L**3       RATES FOR THIS TIME STEP      L**3/T          PACKAGE NAME    
     ------------------                 ------------------------                     ----------------

           IN:                                      IN:
           ---                                      ---
              STO-SS =      227420.5891                STO-SS =           0.9762     STORAGE                          
                 DRN =           0.0000                   DRN =           0.0000     DRN_SYS1                         
                 RIV =      178118.2317                   RIV =        1275.5244     RIV_SYS1                         
                 RIV =           0.0000                   RIV =           0.0000     RIV_SYS2                         
                 RCH =           0.0000                   RCH =           0.0000     RCH_MSW                          

            TOTAL IN =      405538.8208              TOTAL IN =        1276.5006

          OUT:                                     OUT:
          ----                                     ----
              STO-SS =           0.0000                STO-SS =           0.0000     STORAGE                          
                 DRN =        7102.8947                   DRN =           9.3543     DRN_SYS1                         
                 RIV =      377796.5026                   RIV =        1227.4578     RIV_SYS1                         
                 RIV =       20640.9442                   RIV =          39.6985     RIV_SYS2                         
                 RCH =           0.0000                   RCH =           0.0000     RCH_MSW                          

           TOTAL OUT =      405540.3415             TOTAL OUT =        1276.5106

            IN - OUT =          -1.5207              IN - OUT =      -9.9938E-03

 PERCENT DISCREPANCY =          -0.00     PERCENT DISCREPANCY =          -0.00




         TIME SUMMARY AT END OF TIME STEP    1 IN STRESS PERIOD  172
                    SECONDS     MINUTES      HOURS       DAYS        YEARS
                    -----------------------------------------------------------
   TIME STEP LENGTH  86400.      1440.0      24.000      1.0000     2.73785E-03
 STRESS PERIOD TIME  86400.      1440.0      24.000      1.0000     2.73785E-03
         TOTAL TIME 1.48608E+07 2.47680E+05  4128.0      172.00     0.47091    


end timestep


start timestep kper="173" kstp="1" mode="normal"

 #Stressperiod Save Options

 BEGIN READING OUTPUT CONTROL FOR STRESS PERIOD 173
      ALL TIME STEPS WILL BE SAVED
      ALL TIME STEPS WILL BE SAVED

 END READING OUTPUT CONTROL FOR STRESS PERIOD 173


 PROCESSING STORAGE PERIOD DATA
 END PROCESSING STORAGE PERIOD DATA


 STRESS PERIOD 173 IS TRANSIENT


 REUSING DRNS FROM LAST STRESS PERIOD

 REUSING RIVS FROM LAST STRESS PERIOD

 REUSING RIVS FROM LAST STRESS PERIOD

 REUSING RCHS FROM LAST STRESS PERIOD
 UBDSV06 SAVING              DRN IN MODEL GWF_1            PACKAGE GWF_1           CONNECTED TO MODEL GWF_1            PACKAGE DRN_SYS1         ON UNIT   1018 AT TIME STEP      1, STRESS PERIOD    173
 UBDSV06 SAVING              RIV IN MODEL GWF_1            PACKAGE GWF_1           CONNECTED TO MODEL GWF_1            PACKAGE RIV_SYS1         ON UNIT   1018 AT TIME STEP      1, STRESS PERIOD    173
 UBDSV06 SAVING              RIV IN MODEL GWF_1            PACKAGE GWF_1           CONNECTED TO MODEL GWF_1            PACKAGE RIV_SYS2         ON UNIT   1018 AT TIME STEP      1, STRESS PERIOD    173

 HEAD WILL BE SAVED ON UNIT 1017 AT END OF TIME STEP    1, STRESS PERIOD  173


  VOLUME BUDGET FOR ENTIRE MODEL AT END OF TIME STEP    1, STRESS PERIOD 173
  ---------------------------------------------------------------------------------------------------

     CUMULATIVE VOLUME      L**3       RATES FOR THIS TIME STEP      L**3/T          PACKAGE NAME    
     ------------------                 ------------------------                     ----------------

           IN:                                      IN:
           ---                                      ---
              STO-SS =      227421.5143                STO-SS =           0.9252     STORAGE                          
                 DRN =           0.0000                   DRN =           0.0000     DRN_SYS1                         
                 RIV =      179393.7725                   RIV =        1275.5408     RIV_SYS1                         
                 RIV =           0.0000                   RIV =           0.0000     RIV_SYS2                         
                 RCH =           0.0000                   RCH =           0.0000     RCH_MSW                          

            TOTAL IN =      406815.2867              TOTAL IN =        1276.4659

          OUT:                                     OUT:
          ----                                     ----
              STO-SS =           0.0000                STO-SS =           0.0000     STORAGE                          
                 DRN =        7112.2474                   DRN =           9.3526     DRN_SYS1                         
                 RIV =      379023.9302                   RIV =        1227.4276     RIV_SYS1                         
                 RIV =       20680.6394                   RIV =          39.6952     RIV_SYS2                         
                 RCH =           0.0000                   RCH =           0.0000     RCH_MSW                          

           TOTAL OUT =      406816.8169             TOTAL OUT =        1276.4754

            IN - OUT =          -1.5302              IN - OUT =      -9.4694E-03

 PERCENT DISCREPANCY =          -0.00     PERCENT DISCREPANCY =          -0.00




         TIME SUMMARY AT END OF TIME STEP    1 IN STRESS PERIOD  173
                    SECONDS     MINUTES      HOURS       DAYS        YEARS
                    -----------------------------------------------------------
   TIME STEP LENGTH  86400.      1440.0      24.000      1.0000     2.73785E-03
 STRESS PERIOD TIME  86400.      1440.0      24.000      1.0000     2.73785E-03
         TOTAL TIME 1.49472E+07 2.49120E+05  4152.0      173.00     0.47365    


end timestep


start timestep kper="174" kstp="1" mode="normal"

 #Stressperiod Save Options

 BEGIN READING OUTPUT CONTROL FOR STRESS PERIOD 174
      ALL TIME STEPS WILL BE SAVED
      ALL TIME STEPS WILL BE SAVED

 END READING OUTPUT CONTROL FOR STRESS PERIOD 174


 PROCESSING STORAGE PERIOD DATA
 END PROCESSING STORAGE PERIOD DATA


 STRESS PERIOD 174 IS TRANSIENT


 REUSING DRNS FROM LAST STRESS PERIOD

 REUSING RIVS FROM LAST STRESS PERIOD

 REUSING RIVS FROM LAST STRESS PERIOD

 REUSING RCHS FROM LAST STRESS PERIOD
 UBDSV06 SAVING              DRN IN MODEL GWF_1            PACKAGE GWF_1           CONNECTED TO MODEL GWF_1            PACKAGE DRN_SYS1         ON UNIT   1018 AT TIME STEP      1, STRESS PERIOD    174
 UBDSV06 SAVING              RIV IN MODEL GWF_1            PACKAGE GWF_1           CONNECTED TO MODEL GWF_1            PACKAGE RIV_SYS1         ON UNIT   1018 AT TIME STEP      1, STRESS PERIOD    174
 UBDSV06 SAVING              RIV IN MODEL GWF_1            PACKAGE GWF_1           CONNECTED TO MODEL GWF_1            PACKAGE RIV_SYS2         ON UNIT   1018 AT TIME STEP      1, STRESS PERIOD    174

 HEAD WILL BE SAVED ON UNIT 1017 AT END OF TIME STEP    1, STRESS PERIOD  174


  VOLUME BUDGET FOR ENTIRE MODEL AT END OF TIME STEP    1, STRESS PERIOD 174
  ---------------------------------------------------------------------------------------------------

     CUMULATIVE VOLUME      L**3       RATES FOR THIS TIME STEP      L**3/T          PACKAGE NAME    
     ------------------                 ------------------------                     ----------------

           IN:                                      IN:
           ---                                      ---
              STO-SS =      227422.3910                STO-SS =           0.8768     STORAGE                          
                 DRN =           0.0000                   DRN =           0.0000     DRN_SYS1                         
                 RIV =      180669.3288                   RIV =        1275.5563     RIV_SYS1                         
                 RIV =           0.0000                   RIV =           0.0000     RIV_SYS2                         
                 RCH =           0.0000                   RCH =           0.0000     RCH_MSW                          

            TOTAL IN =      408091.7198              TOTAL IN =        1276.4331

          OUT:                                     OUT:
          ----                                     ----
              STO-SS =           0.0000                STO-SS =           0.0000     STORAGE                          
                 DRN =        7121.5984                   DRN =           9.3510     DRN_SYS1                         
                 RIV =      380251.3291                   RIV =        1227.3989     RIV_SYS1                         
                 RIV =       20720.3315                   RIV =          39.6921     RIV_SYS2                         
                 RCH =           0.0000                   RCH =           0.0000     RCH_MSW                          

           TOTAL OUT =      408093.2590             TOTAL OUT =        1276.4420

            IN - OUT =          -1.5392              IN - OUT =      -8.9727E-03

 PERCENT DISCREPANCY =          -0.00     PERCENT DISCREPANCY =          -0.00




         TIME SUMMARY AT END OF TIME STEP    1 IN STRESS PERIOD  174
                    SECONDS     MINUTES      HOURS       DAYS        YEARS
                    -----------------------------------------------------------
   TIME STEP LENGTH  86400.      1440.0      24.000      1.0000     2.73785E-03
 STRESS PERIOD TIME  86400.      1440.0      24.000      1.0000     2.73785E-03
         TOTAL TIME 1.50336E+07 2.50560E+05  4176.0      174.00     0.47639    


end timestep


start timestep kper="175" kstp="1" mode="normal"

 #Stressperiod Save Options

 BEGIN READING OUTPUT CONTROL FOR STRESS PERIOD 175
      ALL TIME STEPS WILL BE SAVED
      ALL TIME STEPS WILL BE SAVED

 END READING OUTPUT CONTROL FOR STRESS PERIOD 175


 PROCESSING STORAGE PERIOD DATA
 END PROCESSING STORAGE PERIOD DATA


 STRESS PERIOD 175 IS TRANSIENT


 REUSING DRNS FROM LAST STRESS PERIOD

 REUSING RIVS FROM LAST STRESS PERIOD

 REUSING RIVS FROM LAST STRESS PERIOD

 REUSING RCHS FROM LAST STRESS PERIOD
 UBDSV06 SAVING              DRN IN MODEL GWF_1            PACKAGE GWF_1           CONNECTED TO MODEL GWF_1            PACKAGE DRN_SYS1         ON UNIT   1018 AT TIME STEP      1, STRESS PERIOD    175
 UBDSV06 SAVING              RIV IN MODEL GWF_1            PACKAGE GWF_1           CONNECTED TO MODEL GWF_1            PACKAGE RIV_SYS1         ON UNIT   1018 AT TIME STEP      1, STRESS PERIOD    175
 UBDSV06 SAVING              RIV IN MODEL GWF_1            PACKAGE GWF_1           CONNECTED TO MODEL GWF_1            PACKAGE RIV_SYS2         ON UNIT   1018 AT TIME STEP      1, STRESS PERIOD    175

 HEAD WILL BE SAVED ON UNIT 1017 AT END OF TIME STEP    1, STRESS PERIOD  175


  VOLUME BUDGET FOR ENTIRE MODEL AT END OF TIME STEP    1, STRESS PERIOD 175
  ---------------------------------------------------------------------------------------------------

     CUMULATIVE VOLUME      L**3       RATES FOR THIS TIME STEP      L**3/T          PACKAGE NAME    
     ------------------                 ------------------------                     ----------------

           IN:                                      IN:
           ---                                      ---
              STO-SS =      227423.2220                STO-SS =           0.8310     STORAGE                          
                 DRN =           0.0000                   DRN =           0.0000     DRN_SYS1                         
                 RIV =      181944.8997                   RIV =        1275.5710     RIV_SYS1                         
                 RIV =           0.0000                   RIV =           0.0000     RIV_SYS2                         
                 RCH =           0.0000                   RCH =           0.0000     RCH_MSW                          

            TOTAL IN =      409368.1217              TOTAL IN =        1276.4019

          OUT:                                     OUT:
          ----                                     ----
              STO-SS =           0.0000                STO-SS =           0.0000     STORAGE                          
                 DRN =        7130.9479                   DRN =           9.3495     DRN_SYS1                         
                 RIV =      381478.7009                   RIV =        1227.3718     RIV_SYS1                         
                 RIV =       20760.0206                   RIV =          39.6891     RIV_SYS2                         
                 RCH =           0.0000                   RCH =           0.0000     RCH_MSW                          

           TOTAL OUT =      409369.6694             TOTAL OUT =        1276.4104

            IN - OUT =          -1.5477              IN - OUT =      -8.5021E-03

 PERCENT DISCREPANCY =          -0.00     PERCENT DISCREPANCY =          -0.00




         TIME SUMMARY AT END OF TIME STEP    1 IN STRESS PERIOD  175
                    SECONDS     MINUTES      HOURS       DAYS        YEARS
                    -----------------------------------------------------------
   TIME STEP LENGTH  86400.      1440.0      24.000      1.0000     2.73785E-03
 STRESS PERIOD TIME  86400.      1440.0      24.000      1.0000     2.73785E-03
         TOTAL TIME 1.51200E+07 2.52000E+05  4200.0      175.00     0.47912    


end timestep


start timestep kper="176" kstp="1" mode="normal"

 #Stressperiod Save Options

 BEGIN READING OUTPUT CONTROL FOR STRESS PERIOD 176
      ALL TIME STEPS WILL BE SAVED
      ALL TIME STEPS WILL BE SAVED

 END READING OUTPUT CONTROL FOR STRESS PERIOD 176


 PROCESSING STORAGE PERIOD DATA
 END PROCESSING STORAGE PERIOD DATA


 STRESS PERIOD 176 IS TRANSIENT


 REUSING DRNS FROM LAST STRESS PERIOD

 REUSING RIVS FROM LAST STRESS PERIOD

 REUSING RIVS FROM LAST STRESS PERIOD

 REUSING RCHS FROM LAST STRESS PERIOD
 UBDSV06 SAVING              DRN IN MODEL GWF_1            PACKAGE GWF_1           CONNECTED TO MODEL GWF_1            PACKAGE DRN_SYS1         ON UNIT   1018 AT TIME STEP      1, STRESS PERIOD    176
 UBDSV06 SAVING              RIV IN MODEL GWF_1            PACKAGE GWF_1           CONNECTED TO MODEL GWF_1            PACKAGE RIV_SYS1         ON UNIT   1018 AT TIME STEP      1, STRESS PERIOD    176
 UBDSV06 SAVING              RIV IN MODEL GWF_1            PACKAGE GWF_1           CONNECTED TO MODEL GWF_1            PACKAGE RIV_SYS2         ON UNIT   1018 AT TIME STEP      1, STRESS PERIOD    176

 HEAD WILL BE SAVED ON UNIT 1017 AT END OF TIME STEP    1, STRESS PERIOD  176


  VOLUME BUDGET FOR ENTIRE MODEL AT END OF TIME STEP    1, STRESS PERIOD 176
  ---------------------------------------------------------------------------------------------------

     CUMULATIVE VOLUME      L**3       RATES FOR THIS TIME STEP      L**3/T          PACKAGE NAME    
     ------------------                 ------------------------                     ----------------

           IN:                                      IN:
           ---                                      ---
              STO-SS =      227424.0095                STO-SS =           0.7875     STORAGE                          
                 DRN =           0.0000                   DRN =           0.0000     DRN_SYS1                         
                 RIV =      183220.4846                   RIV =        1275.5849     RIV_SYS1                         
                 RIV =           0.0000                   RIV =           0.0000     RIV_SYS2                         
                 RCH =           0.0000                   RCH =           0.0000     RCH_MSW                          

            TOTAL IN =      410644.4941              TOTAL IN =        1276.3724

          OUT:                                     OUT:
          ----                                     ----
              STO-SS =           0.0000                STO-SS =           0.0000     STORAGE                          
                 DRN =        7140.2960                   DRN =           9.3481     DRN_SYS1                         
                 RIV =      382706.0469                   RIV =        1227.3461     RIV_SYS1                         
                 RIV =       20799.7069                   RIV =          39.6863     RIV_SYS2                         
                 RCH =           0.0000                   RCH =           0.0000     RCH_MSW                          

           TOTAL OUT =      410646.0498             TOTAL OUT =        1276.3805

            IN - OUT =          -1.5557              IN - OUT =      -8.0562E-03

 PERCENT DISCREPANCY =          -0.00     PERCENT DISCREPANCY =          -0.00




         TIME SUMMARY AT END OF TIME STEP    1 IN STRESS PERIOD  176
                    SECONDS     MINUTES      HOURS       DAYS        YEARS
                    -----------------------------------------------------------
   TIME STEP LENGTH  86400.      1440.0      24.000      1.0000     2.73785E-03
 STRESS PERIOD TIME  86400.      1440.0      24.000      1.0000     2.73785E-03
         TOTAL TIME 1.52064E+07 2.53440E+05  4224.0      176.00     0.48186    


end timestep


start timestep kper="177" kstp="1" mode="normal"

 #Stressperiod Save Options

 BEGIN READING OUTPUT CONTROL FOR STRESS PERIOD 177
      ALL TIME STEPS WILL BE SAVED
      ALL TIME STEPS WILL BE SAVED

 END READING OUTPUT CONTROL FOR STRESS PERIOD 177


 PROCESSING STORAGE PERIOD DATA
 END PROCESSING STORAGE PERIOD DATA


 STRESS PERIOD 177 IS TRANSIENT


 REUSING DRNS FROM LAST STRESS PERIOD

 REUSING RIVS FROM LAST STRESS PERIOD

 REUSING RIVS FROM LAST STRESS PERIOD

 REUSING RCHS FROM LAST STRESS PERIOD
 UBDSV06 SAVING              DRN IN MODEL GWF_1            PACKAGE GWF_1           CONNECTED TO MODEL GWF_1            PACKAGE DRN_SYS1         ON UNIT   1018 AT TIME STEP      1, STRESS PERIOD    177
 UBDSV06 SAVING              RIV IN MODEL GWF_1            PACKAGE GWF_1           CONNECTED TO MODEL GWF_1            PACKAGE RIV_SYS1         ON UNIT   1018 AT TIME STEP      1, STRESS PERIOD    177
 UBDSV06 SAVING              RIV IN MODEL GWF_1            PACKAGE GWF_1           CONNECTED TO MODEL GWF_1            PACKAGE RIV_SYS2         ON UNIT   1018 AT TIME STEP      1, STRESS PERIOD    177

 HEAD WILL BE SAVED ON UNIT 1017 AT END OF TIME STEP    1, STRESS PERIOD  177


  VOLUME BUDGET FOR ENTIRE MODEL AT END OF TIME STEP    1, STRESS PERIOD 177
  ---------------------------------------------------------------------------------------------------

     CUMULATIVE VOLUME      L**3       RATES FOR THIS TIME STEP      L**3/T          PACKAGE NAME    
     ------------------                 ------------------------                     ----------------

           IN:                                      IN:
           ---                                      ---
              STO-SS =      227424.7558                STO-SS =           0.7463     STORAGE                          
                 DRN =           0.0000                   DRN =           0.0000     DRN_SYS1                         
                 RIV =      184496.0827                   RIV =        1275.5981     RIV_SYS1                         
                 RIV =           0.0000                   RIV =           0.0000     RIV_SYS2                         
                 RCH =           0.0000                   RCH =           0.0000     RCH_MSW                          

            TOTAL IN =      411920.8385              TOTAL IN =        1276.3444

          OUT:                                     OUT:
          ----                                     ----
              STO-SS =           0.0000                STO-SS =           0.0000     STORAGE                          
                 DRN =        7149.6427                   DRN =           9.3467     DRN_SYS1                         
                 RIV =      383933.3686                   RIV =        1227.3217     RIV_SYS1                         
                 RIV =       20839.3905                   RIV =          39.6836     RIV_SYS2                         
                 RCH =           0.0000                   RCH =           0.0000     RCH_MSW                          

           TOTAL OUT =      411922.4019             TOTAL OUT =        1276.3521

            IN - OUT =          -1.5634              IN - OUT =      -7.6339E-03

 PERCENT DISCREPANCY =          -0.00     PERCENT DISCREPANCY =          -0.00




         TIME SUMMARY AT END OF TIME STEP    1 IN STRESS PERIOD  177
                    SECONDS     MINUTES      HOURS       DAYS        YEARS
                    -----------------------------------------------------------
   TIME STEP LENGTH  86400.      1440.0      24.000      1.0000     2.73785E-03
 STRESS PERIOD TIME  86400.      1440.0      24.000      1.0000     2.73785E-03
         TOTAL TIME 1.52928E+07 2.54880E+05  4248.0      177.00     0.48460    


end timestep


start timestep kper="178" kstp="1" mode="normal"

 #Stressperiod Save Options

 BEGIN READING OUTPUT CONTROL FOR STRESS PERIOD 178
      ALL TIME STEPS WILL BE SAVED
      ALL TIME STEPS WILL BE SAVED

 END READING OUTPUT CONTROL FOR STRESS PERIOD 178


 PROCESSING STORAGE PERIOD DATA
 END PROCESSING STORAGE PERIOD DATA


 STRESS PERIOD 178 IS TRANSIENT


 REUSING DRNS FROM LAST STRESS PERIOD

 REUSING RIVS FROM LAST STRESS PERIOD

 REUSING RIVS FROM LAST STRESS PERIOD

 REUSING RCHS FROM LAST STRESS PERIOD
 UBDSV06 SAVING              DRN IN MODEL GWF_1            PACKAGE GWF_1           CONNECTED TO MODEL GWF_1            PACKAGE DRN_SYS1         ON UNIT   1018 AT TIME STEP      1, STRESS PERIOD    178
 UBDSV06 SAVING              RIV IN MODEL GWF_1            PACKAGE GWF_1           CONNECTED TO MODEL GWF_1            PACKAGE RIV_SYS1         ON UNIT   1018 AT TIME STEP      1, STRESS PERIOD    178
 UBDSV06 SAVING              RIV IN MODEL GWF_1            PACKAGE GWF_1           CONNECTED TO MODEL GWF_1            PACKAGE RIV_SYS2         ON UNIT   1018 AT TIME STEP      1, STRESS PERIOD    178

 HEAD WILL BE SAVED ON UNIT 1017 AT END OF TIME STEP    1, STRESS PERIOD  178


  VOLUME BUDGET FOR ENTIRE MODEL AT END OF TIME STEP    1, STRESS PERIOD 178
  ---------------------------------------------------------------------------------------------------

     CUMULATIVE VOLUME      L**3       RATES FOR THIS TIME STEP      L**3/T          PACKAGE NAME    
     ------------------                 ------------------------                     ----------------

           IN:                                      IN:
           ---                                      ---
              STO-SS =      227425.4631                STO-SS =           0.7073     STORAGE                          
                 DRN =           0.0000                   DRN =           0.0000     DRN_SYS1                         
                 RIV =      185771.6933                   RIV =        1275.6106     RIV_SYS1                         
                 RIV =           0.0000                   RIV =           0.0000     RIV_SYS2                         
                 RCH =           0.0000                   RCH =           0.0000     RCH_MSW                          

            TOTAL IN =      413197.1564              TOTAL IN =        1276.3179

          OUT:                                     OUT:
          ----                                     ----
              STO-SS =           0.0000                STO-SS =           0.0000     STORAGE                          
                 DRN =        7158.9882                   DRN =           9.3454     DRN_SYS1                         
                 RIV =      385160.6672                   RIV =        1227.2986     RIV_SYS1                         
                 RIV =       20879.0716                   RIV =          39.6811     RIV_SYS2                         
                 RCH =           0.0000                   RCH =           0.0000     RCH_MSW                          

           TOTAL OUT =      413198.7270             TOTAL OUT =        1276.3251

            IN - OUT =          -1.5706              IN - OUT =      -7.2337E-03

 PERCENT DISCREPANCY =          -0.00     PERCENT DISCREPANCY =          -0.00




         TIME SUMMARY AT END OF TIME STEP    1 IN STRESS PERIOD  178
                    SECONDS     MINUTES      HOURS       DAYS        YEARS
                    -----------------------------------------------------------
   TIME STEP LENGTH  86400.      1440.0      24.000      1.0000     2.73785E-03
 STRESS PERIOD TIME  86400.      1440.0      24.000      1.0000     2.73785E-03
         TOTAL TIME 1.53792E+07 2.56320E+05  4272.0      178.00     0.48734    


end timestep


start timestep kper="179" kstp="1" mode="normal"

 #Stressperiod Save Options

 BEGIN READING OUTPUT CONTROL FOR STRESS PERIOD 179
      ALL TIME STEPS WILL BE SAVED
      ALL TIME STEPS WILL BE SAVED

 END READING OUTPUT CONTROL FOR STRESS PERIOD 179


 PROCESSING STORAGE PERIOD DATA
 END PROCESSING STORAGE PERIOD DATA


 STRESS PERIOD 179 IS TRANSIENT


 REUSING DRNS FROM LAST STRESS PERIOD

 REUSING RIVS FROM LAST STRESS PERIOD

 REUSING RIVS FROM LAST STRESS PERIOD

 REUSING RCHS FROM LAST STRESS PERIOD
 UBDSV06 SAVING              DRN IN MODEL GWF_1            PACKAGE GWF_1           CONNECTED TO MODEL GWF_1            PACKAGE DRN_SYS1         ON UNIT   1018 AT TIME STEP      1, STRESS PERIOD    179
 UBDSV06 SAVING              RIV IN MODEL GWF_1            PACKAGE GWF_1           CONNECTED TO MODEL GWF_1            PACKAGE RIV_SYS1         ON UNIT   1018 AT TIME STEP      1, STRESS PERIOD    179
 UBDSV06 SAVING              RIV IN MODEL GWF_1            PACKAGE GWF_1           CONNECTED TO MODEL GWF_1            PACKAGE RIV_SYS2         ON UNIT   1018 AT TIME STEP      1, STRESS PERIOD    179

 HEAD WILL BE SAVED ON UNIT 1017 AT END OF TIME STEP    1, STRESS PERIOD  179


  VOLUME BUDGET FOR ENTIRE MODEL AT END OF TIME STEP    1, STRESS PERIOD 179
  ---------------------------------------------------------------------------------------------------

     CUMULATIVE VOLUME      L**3       RATES FOR THIS TIME STEP      L**3/T          PACKAGE NAME    
     ------------------                 ------------------------                     ----------------

           IN:                                      IN:
           ---                                      ---
              STO-SS =      227426.1335                STO-SS =           0.6703     STORAGE                          
                 DRN =           0.0000                   DRN =           0.0000     DRN_SYS1                         
                 RIV =      187047.3157                   RIV =        1275.6225     RIV_SYS1                         
                 RIV =           0.0000                   RIV =           0.0000     RIV_SYS2                         
                 RCH =           0.0000                   RCH =           0.0000     RCH_MSW                          

            TOTAL IN =      414473.4492              TOTAL IN =        1276.2928

          OUT:                                     OUT:
          ----                                     ----
              STO-SS =           0.0000                STO-SS =           0.0000     STORAGE                          
                 DRN =        7168.3324                   DRN =           9.3442     DRN_SYS1                         
                 RIV =      386387.9439                   RIV =        1227.2767     RIV_SYS1                         
                 RIV =       20918.7504                   RIV =          39.6787     RIV_SYS2                         
                 RCH =           0.0000                   RCH =           0.0000     RCH_MSW                          

           TOTAL OUT =      414475.0267             TOTAL OUT =        1276.2996

            IN - OUT =          -1.5774              IN - OUT =      -6.8546E-03

 PERCENT DISCREPANCY =          -0.00     PERCENT DISCREPANCY =          -0.00




         TIME SUMMARY AT END OF TIME STEP    1 IN STRESS PERIOD  179
                    SECONDS     MINUTES      HOURS       DAYS        YEARS
                    -----------------------------------------------------------
   TIME STEP LENGTH  86400.      1440.0      24.000      1.0000     2.73785E-03
 STRESS PERIOD TIME  86400.      1440.0      24.000      1.0000     2.73785E-03
         TOTAL TIME 1.54656E+07 2.57760E+05  4296.0      179.00     0.49008    


end timestep


start timestep kper="180" kstp="1" mode="normal"

 #Stressperiod Save Options

 BEGIN READING OUTPUT CONTROL FOR STRESS PERIOD 180
      ALL TIME STEPS WILL BE SAVED
      ALL TIME STEPS WILL BE SAVED

 END READING OUTPUT CONTROL FOR STRESS PERIOD 180


 PROCESSING STORAGE PERIOD DATA
 END PROCESSING STORAGE PERIOD DATA


 STRESS PERIOD 180 IS TRANSIENT


 REUSING DRNS FROM LAST STRESS PERIOD

 REUSING RIVS FROM LAST STRESS PERIOD

 REUSING RIVS FROM LAST STRESS PERIOD

 REUSING RCHS FROM LAST STRESS PERIOD
 UBDSV06 SAVING              DRN IN MODEL GWF_1            PACKAGE GWF_1           CONNECTED TO MODEL GWF_1            PACKAGE DRN_SYS1         ON UNIT   1018 AT TIME STEP      1, STRESS PERIOD    180
 UBDSV06 SAVING              RIV IN MODEL GWF_1            PACKAGE GWF_1           CONNECTED TO MODEL GWF_1            PACKAGE RIV_SYS1         ON UNIT   1018 AT TIME STEP      1, STRESS PERIOD    180
 UBDSV06 SAVING              RIV IN MODEL GWF_1            PACKAGE GWF_1           CONNECTED TO MODEL GWF_1            PACKAGE RIV_SYS2         ON UNIT   1018 AT TIME STEP      1, STRESS PERIOD    180

 HEAD WILL BE SAVED ON UNIT 1017 AT END OF TIME STEP    1, STRESS PERIOD  180


  VOLUME BUDGET FOR ENTIRE MODEL AT END OF TIME STEP    1, STRESS PERIOD 180
  ---------------------------------------------------------------------------------------------------

     CUMULATIVE VOLUME      L**3       RATES FOR THIS TIME STEP      L**3/T          PACKAGE NAME    
     ------------------                 ------------------------                     ----------------

           IN:                                      IN:
           ---                                      ---
              STO-SS =      227426.7688                STO-SS =           0.6353     STORAGE                          
                 DRN =           0.0000                   DRN =           0.0000     DRN_SYS1                         
                 RIV =      188322.9494                   RIV =        1275.6337     RIV_SYS1                         
                 RIV =           0.0000                   RIV =           0.0000     RIV_SYS2                         
                 RCH =           0.0000                   RCH =           0.0000     RCH_MSW                          

            TOTAL IN =      415749.7182              TOTAL IN =        1276.2690

          OUT:                                     OUT:
          ----                                     ----
              STO-SS =           0.0000                STO-SS =           0.0000     STORAGE                          
                 DRN =        7177.6754                   DRN =           9.3430     DRN_SYS1                         
                 RIV =      387615.1999                   RIV =        1227.2560     RIV_SYS1                         
                 RIV =       20958.4269                   RIV =          39.6765     RIV_SYS2                         
                 RCH =           0.0000                   RCH =           0.0000     RCH_MSW                          

           TOTAL OUT =      415751.3022             TOTAL OUT =        1276.2755

            IN - OUT =          -1.5839              IN - OUT =      -6.4953E-03

 PERCENT DISCREPANCY =          -0.00     PERCENT DISCREPANCY =          -0.00




         TIME SUMMARY AT END OF TIME STEP    1 IN STRESS PERIOD  180
                    SECONDS     MINUTES      HOURS       DAYS        YEARS
                    -----------------------------------------------------------
   TIME STEP LENGTH  86400.      1440.0      24.000      1.0000     2.73785E-03
 STRESS PERIOD TIME  86400.      1440.0      24.000      1.0000     2.73785E-03
         TOTAL TIME 1.55520E+07 2.59200E+05  4320.0      180.00     0.49281    


end timestep


start timestep kper="181" kstp="1" mode="normal"

 #Stressperiod Save Options

 BEGIN READING OUTPUT CONTROL FOR STRESS PERIOD 181
      ALL TIME STEPS WILL BE SAVED
      ALL TIME STEPS WILL BE SAVED

 END READING OUTPUT CONTROL FOR STRESS PERIOD 181


 PROCESSING STORAGE PERIOD DATA
 END PROCESSING STORAGE PERIOD DATA


 STRESS PERIOD 181 IS TRANSIENT


 REUSING DRNS FROM LAST STRESS PERIOD

 REUSING RIVS FROM LAST STRESS PERIOD

 REUSING RIVS FROM LAST STRESS PERIOD

 REUSING RCHS FROM LAST STRESS PERIOD
 UBDSV06 SAVING              DRN IN MODEL GWF_1            PACKAGE GWF_1           CONNECTED TO MODEL GWF_1            PACKAGE DRN_SYS1         ON UNIT   1018 AT TIME STEP      1, STRESS PERIOD    181
 UBDSV06 SAVING              RIV IN MODEL GWF_1            PACKAGE GWF_1           CONNECTED TO MODEL GWF_1            PACKAGE RIV_SYS1         ON UNIT   1018 AT TIME STEP      1, STRESS PERIOD    181
 UBDSV06 SAVING              RIV IN MODEL GWF_1            PACKAGE GWF_1           CONNECTED TO MODEL GWF_1            PACKAGE RIV_SYS2         ON UNIT   1018 AT TIME STEP      1, STRESS PERIOD    181

 HEAD WILL BE SAVED ON UNIT 1017 AT END OF TIME STEP    1, STRESS PERIOD  181


  VOLUME BUDGET FOR ENTIRE MODEL AT END OF TIME STEP    1, STRESS PERIOD 181
  ---------------------------------------------------------------------------------------------------

     CUMULATIVE VOLUME      L**3       RATES FOR THIS TIME STEP      L**3/T          PACKAGE NAME    
     ------------------                 ------------------------                     ----------------

           IN:                                      IN:
           ---                                      ---
              STO-SS =      227427.3708                STO-SS =           0.6021     STORAGE                          
                 DRN =           0.0000                   DRN =           0.0000     DRN_SYS1                         
                 RIV =      189598.5938                   RIV =        1275.6443     RIV_SYS1                         
                 RIV =           0.0000                   RIV =           0.0000     RIV_SYS2                         
                 RCH =           0.0000                   RCH =           0.0000     RCH_MSW                          

            TOTAL IN =      417025.9646              TOTAL IN =        1276.2464

          OUT:                                     OUT:
          ----                                     ----
              STO-SS =           0.0000                STO-SS =           0.0000     STORAGE                          
                 DRN =        7187.0173                   DRN =           9.3419     DRN_SYS1                         
                 RIV =      388842.4362                   RIV =        1227.2363     RIV_SYS1                         
                 RIV =       20998.1012                   RIV =          39.6743     RIV_SYS2                         
                 RCH =           0.0000                   RCH =           0.0000     RCH_MSW                          

           TOTAL OUT =      417027.5547             TOTAL OUT =        1276.2526

            IN - OUT =          -1.5901              IN - OUT =      -6.1550E-03

 PERCENT DISCREPANCY =          -0.00     PERCENT DISCREPANCY =          -0.00




         TIME SUMMARY AT END OF TIME STEP    1 IN STRESS PERIOD  181
                    SECONDS     MINUTES      HOURS       DAYS        YEARS
                    -----------------------------------------------------------
   TIME STEP LENGTH  86400.      1440.0      24.000      1.0000     2.73785E-03
 STRESS PERIOD TIME  86400.      1440.0      24.000      1.0000     2.73785E-03
         TOTAL TIME 1.56384E+07 2.60640E+05  4344.0      181.00     0.49555    


end timestep


start timestep kper="182" kstp="1" mode="normal"

 #Stressperiod Save Options

 BEGIN READING OUTPUT CONTROL FOR STRESS PERIOD 182
      ALL TIME STEPS WILL BE SAVED
      ALL TIME STEPS WILL BE SAVED

 END READING OUTPUT CONTROL FOR STRESS PERIOD 182


 PROCESSING STORAGE PERIOD DATA
 END PROCESSING STORAGE PERIOD DATA


 STRESS PERIOD 182 IS TRANSIENT


 REUSING DRNS FROM LAST STRESS PERIOD

 REUSING RIVS FROM LAST STRESS PERIOD

 REUSING RIVS FROM LAST STRESS PERIOD

 REUSING RCHS FROM LAST STRESS PERIOD
 UBDSV06 SAVING              DRN IN MODEL GWF_1            PACKAGE GWF_1           CONNECTED TO MODEL GWF_1            PACKAGE DRN_SYS1         ON UNIT   1018 AT TIME STEP      1, STRESS PERIOD    182
 UBDSV06 SAVING              RIV IN MODEL GWF_1            PACKAGE GWF_1           CONNECTED TO MODEL GWF_1            PACKAGE RIV_SYS1         ON UNIT   1018 AT TIME STEP      1, STRESS PERIOD    182
 UBDSV06 SAVING              RIV IN MODEL GWF_1            PACKAGE GWF_1           CONNECTED TO MODEL GWF_1            PACKAGE RIV_SYS2         ON UNIT   1018 AT TIME STEP      1, STRESS PERIOD    182

 HEAD WILL BE SAVED ON UNIT 1017 AT END OF TIME STEP    1, STRESS PERIOD  182


  VOLUME BUDGET FOR ENTIRE MODEL AT END OF TIME STEP    1, STRESS PERIOD 182
  ---------------------------------------------------------------------------------------------------

     CUMULATIVE VOLUME      L**3       RATES FOR THIS TIME STEP      L**3/T          PACKAGE NAME    
     ------------------                 ------------------------                     ----------------

           IN:                                      IN:
           ---                                      ---
              STO-SS =      227427.9414                STO-SS =           0.5706     STORAGE                          
                 DRN =           0.0000                   DRN =           0.0000     DRN_SYS1                         
                 RIV =      190874.2482                   RIV =        1275.6544     RIV_SYS1                         
                 RIV =           0.0000                   RIV =           0.0000     RIV_SYS2                         
                 RCH =           0.0000                   RCH =           0.0000     RCH_MSW                          

            TOTAL IN =      418302.1897              TOTAL IN =        1276.2250

          OUT:                                     OUT:
          ----                                     ----
              STO-SS =           0.0000                STO-SS =           0.0000     STORAGE                          
                 DRN =        7196.3582                   DRN =           9.3409     DRN_SYS1                         
                 RIV =      390069.6539                   RIV =        1227.2177     RIV_SYS1                         
                 RIV =       21037.7735                   RIV =          39.6723     RIV_SYS2                         
                 RCH =           0.0000                   RCH =           0.0000     RCH_MSW                          

           TOTAL OUT =      418303.7856             TOTAL OUT =        1276.2309

            IN - OUT =          -1.5959              IN - OUT =      -5.8325E-03

 PERCENT DISCREPANCY =          -0.00     PERCENT DISCREPANCY =          -0.00




         TIME SUMMARY AT END OF TIME STEP    1 IN STRESS PERIOD  182
                    SECONDS     MINUTES      HOURS       DAYS        YEARS
                    -----------------------------------------------------------
   TIME STEP LENGTH  86400.      1440.0      24.000      1.0000     2.73785E-03
 STRESS PERIOD TIME  86400.      1440.0      24.000      1.0000     2.73785E-03
         TOTAL TIME 1.57248E+07 2.62080E+05  4368.0      182.00     0.49829    


end timestep


start timestep kper="183" kstp="1" mode="normal"

 #Stressperiod Save Options

 BEGIN READING OUTPUT CONTROL FOR STRESS PERIOD 183
      ALL TIME STEPS WILL BE SAVED
      ALL TIME STEPS WILL BE SAVED

 END READING OUTPUT CONTROL FOR STRESS PERIOD 183


 PROCESSING STORAGE PERIOD DATA
 END PROCESSING STORAGE PERIOD DATA


 STRESS PERIOD 183 IS TRANSIENT


 REUSING DRNS FROM LAST STRESS PERIOD

 REUSING RIVS FROM LAST STRESS PERIOD

 REUSING RIVS FROM LAST STRESS PERIOD

 REUSING RCHS FROM LAST STRESS PERIOD
 UBDSV06 SAVING              DRN IN MODEL GWF_1            PACKAGE GWF_1           CONNECTED TO MODEL GWF_1            PACKAGE DRN_SYS1         ON UNIT   1018 AT TIME STEP      1, STRESS PERIOD    183
 UBDSV06 SAVING              RIV IN MODEL GWF_1            PACKAGE GWF_1           CONNECTED TO MODEL GWF_1            PACKAGE RIV_SYS1         ON UNIT   1018 AT TIME STEP      1, STRESS PERIOD    183
 UBDSV06 SAVING              RIV IN MODEL GWF_1            PACKAGE GWF_1           CONNECTED TO MODEL GWF_1            PACKAGE RIV_SYS2         ON UNIT   1018 AT TIME STEP      1, STRESS PERIOD    183

 HEAD WILL BE SAVED ON UNIT 1017 AT END OF TIME STEP    1, STRESS PERIOD  183


  VOLUME BUDGET FOR ENTIRE MODEL AT END OF TIME STEP    1, STRESS PERIOD 183
  ---------------------------------------------------------------------------------------------------

     CUMULATIVE VOLUME      L**3       RATES FOR THIS TIME STEP      L**3/T          PACKAGE NAME    
     ------------------                 ------------------------                     ----------------

           IN:                                      IN:
           ---                                      ---
              STO-SS =      227428.4822                STO-SS =           0.5408     STORAGE                          
                 DRN =           0.0000                   DRN =           0.0000     DRN_SYS1                         
                 RIV =      192149.9122                   RIV =        1275.6640     RIV_SYS1                         
                 RIV =           0.0000                   RIV =           0.0000     RIV_SYS2                         
                 RCH =           0.0000                   RCH =           0.0000     RCH_MSW                          

            TOTAL IN =      419578.3944              TOTAL IN =        1276.2048

          OUT:                                     OUT:
          ----                                     ----
              STO-SS =           0.0000                STO-SS =           0.0000     STORAGE                          
                 DRN =        7205.6981                   DRN =           9.3399     DRN_SYS1                         
                 RIV =      391296.8539                   RIV =        1227.2000     RIV_SYS1                         
                 RIV =       21077.4439                   RIV =          39.6704     RIV_SYS2                         
                 RCH =           0.0000                   RCH =           0.0000     RCH_MSW                          

           TOTAL OUT =      419579.9959             TOTAL OUT =        1276.2103

            IN - OUT =          -1.6015              IN - OUT =      -5.5270E-03

 PERCENT DISCREPANCY =          -0.00     PERCENT DISCREPANCY =          -0.00




         TIME SUMMARY AT END OF TIME STEP    1 IN STRESS PERIOD  183
                    SECONDS     MINUTES      HOURS       DAYS        YEARS
                    -----------------------------------------------------------
   TIME STEP LENGTH  86400.      1440.0      24.000      1.0000     2.73785E-03
 STRESS PERIOD TIME  86400.      1440.0      24.000      1.0000     2.73785E-03
         TOTAL TIME 1.58112E+07 2.63520E+05  4392.0      183.00     0.50103    


end timestep


start timestep kper="184" kstp="1" mode="normal"

 #Stressperiod Save Options

 BEGIN READING OUTPUT CONTROL FOR STRESS PERIOD 184
      ALL TIME STEPS WILL BE SAVED
      ALL TIME STEPS WILL BE SAVED

 END READING OUTPUT CONTROL FOR STRESS PERIOD 184


 PROCESSING STORAGE PERIOD DATA
 END PROCESSING STORAGE PERIOD DATA


 STRESS PERIOD 184 IS TRANSIENT


 REUSING DRNS FROM LAST STRESS PERIOD

 REUSING RIVS FROM LAST STRESS PERIOD

 REUSING RIVS FROM LAST STRESS PERIOD

 REUSING RCHS FROM LAST STRESS PERIOD
 UBDSV06 SAVING              DRN IN MODEL GWF_1            PACKAGE GWF_1           CONNECTED TO MODEL GWF_1            PACKAGE DRN_SYS1         ON UNIT   1018 AT TIME STEP      1, STRESS PERIOD    184
 UBDSV06 SAVING              RIV IN MODEL GWF_1            PACKAGE GWF_1           CONNECTED TO MODEL GWF_1            PACKAGE RIV_SYS1         ON UNIT   1018 AT TIME STEP      1, STRESS PERIOD    184
 UBDSV06 SAVING              RIV IN MODEL GWF_1            PACKAGE GWF_1           CONNECTED TO MODEL GWF_1            PACKAGE RIV_SYS2         ON UNIT   1018 AT TIME STEP      1, STRESS PERIOD    184

 HEAD WILL BE SAVED ON UNIT 1017 AT END OF TIME STEP    1, STRESS PERIOD  184


  VOLUME BUDGET FOR ENTIRE MODEL AT END OF TIME STEP    1, STRESS PERIOD 184
  ---------------------------------------------------------------------------------------------------

     CUMULATIVE VOLUME      L**3       RATES FOR THIS TIME STEP      L**3/T          PACKAGE NAME    
     ------------------                 ------------------------                     ----------------

           IN:                                      IN:
           ---                                      ---
              STO-SS =      227428.9947                STO-SS =           0.5125     STORAGE                          
                 DRN =           0.0000                   DRN =           0.0000     DRN_SYS1                         
                 RIV =      193425.5853                   RIV =        1275.6731     RIV_SYS1                         
                 RIV =           0.0000                   RIV =           0.0000     RIV_SYS2                         
                 RCH =           0.0000                   RCH =           0.0000     RCH_MSW                          

            TOTAL IN =      420854.5800              TOTAL IN =        1276.1856

          OUT:                                     OUT:
          ----                                     ----
              STO-SS =           0.0000                STO-SS =           0.0000     STORAGE                          
                 DRN =        7215.0371                   DRN =           9.3390     DRN_SYS1                         
                 RIV =      392524.0371                   RIV =        1227.1833     RIV_SYS1                         
                 RIV =       21117.1125                   RIV =          39.6686     RIV_SYS2                         
                 RCH =           0.0000                   RCH =           0.0000     RCH_MSW                          

           TOTAL OUT =      420856.1867             TOTAL OUT =        1276.1908

            IN - OUT =          -1.6067              IN - OUT =      -5.2375E-03

 PERCENT DISCREPANCY =          -0.00     PERCENT DISCREPANCY =          -0.00




         TIME SUMMARY AT END OF TIME STEP    1 IN STRESS PERIOD  184
                    SECONDS     MINUTES      HOURS       DAYS        YEARS
                    -----------------------------------------------------------
   TIME STEP LENGTH  86400.      1440.0      24.000      1.0000     2.73785E-03
 STRESS PERIOD TIME  86400.      1440.0      24.000      1.0000     2.73785E-03
         TOTAL TIME 1.58976E+07 2.64960E+05  4416.0      184.00     0.50376    


end timestep


start timestep kper="185" kstp="1" mode="normal"

 #Stressperiod Save Options

 BEGIN READING OUTPUT CONTROL FOR STRESS PERIOD 185
      ALL TIME STEPS WILL BE SAVED
      ALL TIME STEPS WILL BE SAVED

 END READING OUTPUT CONTROL FOR STRESS PERIOD 185


 PROCESSING STORAGE PERIOD DATA
 END PROCESSING STORAGE PERIOD DATA


 STRESS PERIOD 185 IS TRANSIENT


 REUSING DRNS FROM LAST STRESS PERIOD

 REUSING RIVS FROM LAST STRESS PERIOD

 REUSING RIVS FROM LAST STRESS PERIOD

 REUSING RCHS FROM LAST STRESS PERIOD
 UBDSV06 SAVING              DRN IN MODEL GWF_1            PACKAGE GWF_1           CONNECTED TO MODEL GWF_1            PACKAGE DRN_SYS1         ON UNIT   1018 AT TIME STEP      1, STRESS PERIOD    185
 UBDSV06 SAVING              RIV IN MODEL GWF_1            PACKAGE GWF_1           CONNECTED TO MODEL GWF_1            PACKAGE RIV_SYS1         ON UNIT   1018 AT TIME STEP      1, STRESS PERIOD    185
 UBDSV06 SAVING              RIV IN MODEL GWF_1            PACKAGE GWF_1           CONNECTED TO MODEL GWF_1            PACKAGE RIV_SYS2         ON UNIT   1018 AT TIME STEP      1, STRESS PERIOD    185

 HEAD WILL BE SAVED ON UNIT 1017 AT END OF TIME STEP    1, STRESS PERIOD  185


  VOLUME BUDGET FOR ENTIRE MODEL AT END OF TIME STEP    1, STRESS PERIOD 185
  ---------------------------------------------------------------------------------------------------

     CUMULATIVE VOLUME      L**3       RATES FOR THIS TIME STEP      L**3/T          PACKAGE NAME    
     ------------------                 ------------------------                     ----------------

           IN:                                      IN:
           ---                                      ---
              STO-SS =      227429.4804                STO-SS =           0.4857     STORAGE                          
                 DRN =           0.0000                   DRN =           0.0000     DRN_SYS1                         
                 RIV =      194701.2670                   RIV =        1275.6817     RIV_SYS1                         
                 RIV =           0.0000                   RIV =           0.0000     RIV_SYS2                         
                 RCH =           0.0000                   RCH =           0.0000     RCH_MSW                          

            TOTAL IN =      422130.7474              TOTAL IN =        1276.1674

          OUT:                                     OUT:
          ----                                     ----
              STO-SS =           0.0000                STO-SS =           0.0000     STORAGE                          
                 DRN =        7224.3752                   DRN =           9.3381     DRN_SYS1                         
                 RIV =      393751.2045                   RIV =        1227.1674     RIV_SYS1                         
                 RIV =       21156.7793                   RIV =          39.6669     RIV_SYS2                         
                 RCH =           0.0000                   RCH =           0.0000     RCH_MSW                          

           TOTAL OUT =      422132.3590             TOTAL OUT =        1276.1723

            IN - OUT =          -1.6117              IN - OUT =      -4.9631E-03

 PERCENT DISCREPANCY =          -0.00     PERCENT DISCREPANCY =          -0.00




         TIME SUMMARY AT END OF TIME STEP    1 IN STRESS PERIOD  185
                    SECONDS     MINUTES      HOURS       DAYS        YEARS
                    -----------------------------------------------------------
   TIME STEP LENGTH  86400.      1440.0      24.000      1.0000     2.73785E-03
 STRESS PERIOD TIME  86400.      1440.0      24.000      1.0000     2.73785E-03
         TOTAL TIME 1.59840E+07 2.66400E+05  4440.0      185.00     0.50650    


end timestep


start timestep kper="186" kstp="1" mode="normal"

 #Stressperiod Save Options

 BEGIN READING OUTPUT CONTROL FOR STRESS PERIOD 186
      ALL TIME STEPS WILL BE SAVED
      ALL TIME STEPS WILL BE SAVED

 END READING OUTPUT CONTROL FOR STRESS PERIOD 186


 PROCESSING STORAGE PERIOD DATA
 END PROCESSING STORAGE PERIOD DATA


 STRESS PERIOD 186 IS TRANSIENT


 REUSING DRNS FROM LAST STRESS PERIOD

 REUSING RIVS FROM LAST STRESS PERIOD

 REUSING RIVS FROM LAST STRESS PERIOD

 REUSING RCHS FROM LAST STRESS PERIOD
 UBDSV06 SAVING              DRN IN MODEL GWF_1            PACKAGE GWF_1           CONNECTED TO MODEL GWF_1            PACKAGE DRN_SYS1         ON UNIT   1018 AT TIME STEP      1, STRESS PERIOD    186
 UBDSV06 SAVING              RIV IN MODEL GWF_1            PACKAGE GWF_1           CONNECTED TO MODEL GWF_1            PACKAGE RIV_SYS1         ON UNIT   1018 AT TIME STEP      1, STRESS PERIOD    186
 UBDSV06 SAVING              RIV IN MODEL GWF_1            PACKAGE GWF_1           CONNECTED TO MODEL GWF_1            PACKAGE RIV_SYS2         ON UNIT   1018 AT TIME STEP      1, STRESS PERIOD    186

 HEAD WILL BE SAVED ON UNIT 1017 AT END OF TIME STEP    1, STRESS PERIOD  186


  VOLUME BUDGET FOR ENTIRE MODEL AT END OF TIME STEP    1, STRESS PERIOD 186
  ---------------------------------------------------------------------------------------------------

     CUMULATIVE VOLUME      L**3       RATES FOR THIS TIME STEP      L**3/T          PACKAGE NAME    
     ------------------                 ------------------------                     ----------------

           IN:                                      IN:
           ---                                      ---
              STO-SS =      227429.9407                STO-SS =           0.4603     STORAGE                          
                 DRN =           0.0000                   DRN =           0.0000     DRN_SYS1                         
                 RIV =      195976.9568                   RIV =        1275.6898     RIV_SYS1                         
                 RIV =           0.0000                   RIV =           0.0000     RIV_SYS2                         
                 RCH =           0.0000                   RCH =           0.0000     RCH_MSW                          

            TOTAL IN =      423406.8975              TOTAL IN =        1276.1501

          OUT:                                     OUT:
          ----                                     ----
              STO-SS =           0.0000                STO-SS =           0.0000     STORAGE                          
                 DRN =        7233.7124                   DRN =           9.3372     DRN_SYS1                         
                 RIV =      394978.3569                   RIV =        1227.1524     RIV_SYS1                         
                 RIV =       21196.4446                   RIV =          39.6652     RIV_SYS2                         
                 RCH =           0.0000                   RCH =           0.0000     RCH_MSW                          

           TOTAL OUT =      423408.5139             TOTAL OUT =        1276.1548

            IN - OUT =          -1.6164              IN - OUT =      -4.7032E-03

 PERCENT DISCREPANCY =          -0.00     PERCENT DISCREPANCY =          -0.00




         TIME SUMMARY AT END OF TIME STEP    1 IN STRESS PERIOD  186
                    SECONDS     MINUTES      HOURS       DAYS        YEARS
                    -----------------------------------------------------------
   TIME STEP LENGTH  86400.      1440.0      24.000      1.0000     2.73785E-03
 STRESS PERIOD TIME  86400.      1440.0      24.000      1.0000     2.73785E-03
         TOTAL TIME 1.60704E+07 2.67840E+05  4464.0      186.00     0.50924    


end timestep


start timestep kper="187" kstp="1" mode="normal"

 #Stressperiod Save Options

 BEGIN READING OUTPUT CONTROL FOR STRESS PERIOD 187
      ALL TIME STEPS WILL BE SAVED
      ALL TIME STEPS WILL BE SAVED

 END READING OUTPUT CONTROL FOR STRESS PERIOD 187


 PROCESSING STORAGE PERIOD DATA
 END PROCESSING STORAGE PERIOD DATA


 STRESS PERIOD 187 IS TRANSIENT


 REUSING DRNS FROM LAST STRESS PERIOD

 REUSING RIVS FROM LAST STRESS PERIOD

 REUSING RIVS FROM LAST STRESS PERIOD

 REUSING RCHS FROM LAST STRESS PERIOD
 UBDSV06 SAVING              DRN IN MODEL GWF_1            PACKAGE GWF_1           CONNECTED TO MODEL GWF_1            PACKAGE DRN_SYS1         ON UNIT   1018 AT TIME STEP      1, STRESS PERIOD    187
 UBDSV06 SAVING              RIV IN MODEL GWF_1            PACKAGE GWF_1           CONNECTED TO MODEL GWF_1            PACKAGE RIV_SYS1         ON UNIT   1018 AT TIME STEP      1, STRESS PERIOD    187
 UBDSV06 SAVING              RIV IN MODEL GWF_1            PACKAGE GWF_1           CONNECTED TO MODEL GWF_1            PACKAGE RIV_SYS2         ON UNIT   1018 AT TIME STEP      1, STRESS PERIOD    187

 HEAD WILL BE SAVED ON UNIT 1017 AT END OF TIME STEP    1, STRESS PERIOD  187


  VOLUME BUDGET FOR ENTIRE MODEL AT END OF TIME STEP    1, STRESS PERIOD 187
  ---------------------------------------------------------------------------------------------------

     CUMULATIVE VOLUME      L**3       RATES FOR THIS TIME STEP      L**3/T          PACKAGE NAME    
     ------------------                 ------------------------                     ----------------

           IN:                                      IN:
           ---                                      ---
              STO-SS =      227430.3769                STO-SS =           0.4362     STORAGE                          
                 DRN =           0.0000                   DRN =           0.0000     DRN_SYS1                         
                 RIV =      197252.6543                   RIV =        1275.6975     RIV_SYS1                         
                 RIV =           0.0000                   RIV =           0.0000     RIV_SYS2                         
                 RCH =           0.0000                   RCH =           0.0000     RCH_MSW                          

            TOTAL IN =      424683.0313              TOTAL IN =        1276.1338

          OUT:                                     OUT:
          ----                                     ----
              STO-SS =           0.0000                STO-SS =           0.0000     STORAGE                          
                 DRN =        7243.0488                   DRN =           9.3364     DRN_SYS1                         
                 RIV =      396205.4950                   RIV =        1227.1381     RIV_SYS1                         
                 RIV =       21236.1082                   RIV =          39.6637     RIV_SYS2                         
                 RCH =           0.0000                   RCH =           0.0000     RCH_MSW                          

           TOTAL OUT =      424684.6521             TOTAL OUT =        1276.1382

            IN - OUT =          -1.6208              IN - OUT =      -4.4569E-03

 PERCENT DISCREPANCY =          -0.00     PERCENT DISCREPANCY =          -0.00




         TIME SUMMARY AT END OF TIME STEP    1 IN STRESS PERIOD  187
                    SECONDS     MINUTES      HOURS       DAYS        YEARS
                    -----------------------------------------------------------
   TIME STEP LENGTH  86400.      1440.0      24.000      1.0000     2.73785E-03
 STRESS PERIOD TIME  86400.      1440.0      24.000      1.0000     2.73785E-03
         TOTAL TIME 1.61568E+07 2.69280E+05  4488.0      187.00     0.51198    


end timestep


start timestep kper="188" kstp="1" mode="normal"

 #Stressperiod Save Options

 BEGIN READING OUTPUT CONTROL FOR STRESS PERIOD 188
      ALL TIME STEPS WILL BE SAVED
      ALL TIME STEPS WILL BE SAVED

 END READING OUTPUT CONTROL FOR STRESS PERIOD 188


 PROCESSING STORAGE PERIOD DATA
 END PROCESSING STORAGE PERIOD DATA


 STRESS PERIOD 188 IS TRANSIENT


 REUSING DRNS FROM LAST STRESS PERIOD

 REUSING RIVS FROM LAST STRESS PERIOD

 REUSING RIVS FROM LAST STRESS PERIOD

 REUSING RCHS FROM LAST STRESS PERIOD
 UBDSV06 SAVING              DRN IN MODEL GWF_1            PACKAGE GWF_1           CONNECTED TO MODEL GWF_1            PACKAGE DRN_SYS1         ON UNIT   1018 AT TIME STEP      1, STRESS PERIOD    188
 UBDSV06 SAVING              RIV IN MODEL GWF_1            PACKAGE GWF_1           CONNECTED TO MODEL GWF_1            PACKAGE RIV_SYS1         ON UNIT   1018 AT TIME STEP      1, STRESS PERIOD    188
 UBDSV06 SAVING              RIV IN MODEL GWF_1            PACKAGE GWF_1           CONNECTED TO MODEL GWF_1            PACKAGE RIV_SYS2         ON UNIT   1018 AT TIME STEP      1, STRESS PERIOD    188

 HEAD WILL BE SAVED ON UNIT 1017 AT END OF TIME STEP    1, STRESS PERIOD  188


  VOLUME BUDGET FOR ENTIRE MODEL AT END OF TIME STEP    1, STRESS PERIOD 188
  ---------------------------------------------------------------------------------------------------

     CUMULATIVE VOLUME      L**3       RATES FOR THIS TIME STEP      L**3/T          PACKAGE NAME    
     ------------------                 ------------------------                     ----------------

           IN:                                      IN:
           ---                                      ---
              STO-SS =      227430.7904                STO-SS =           0.4134     STORAGE                          
                 DRN =           0.0000                   DRN =           0.0000     DRN_SYS1                         
                 RIV =      198528.3592                   RIV =        1275.7048     RIV_SYS1                         
                 RIV =           0.0000                   RIV =           0.0000     RIV_SYS2                         
                 RCH =           0.0000                   RCH =           0.0000     RCH_MSW                          

            TOTAL IN =      425959.1495              TOTAL IN =        1276.1183

          OUT:                                     OUT:
          ----                                     ----
              STO-SS =           0.0000                STO-SS =           0.0000     STORAGE                          
                 DRN =        7252.3845                   DRN =           9.3357     DRN_SYS1                         
                 RIV =      397432.6197                   RIV =        1227.1246     RIV_SYS1                         
                 RIV =       21275.7704                   RIV =          39.6622     RIV_SYS2                         
                 RCH =           0.0000                   RCH =           0.0000     RCH_MSW                          

           TOTAL OUT =      425960.7746             TOTAL OUT =        1276.1225

            IN - OUT =          -1.6250              IN - OUT =      -4.2235E-03

 PERCENT DISCREPANCY =          -0.00     PERCENT DISCREPANCY =          -0.00




         TIME SUMMARY AT END OF TIME STEP    1 IN STRESS PERIOD  188
                    SECONDS     MINUTES      HOURS       DAYS        YEARS
                    -----------------------------------------------------------
   TIME STEP LENGTH  86400.      1440.0      24.000      1.0000     2.73785E-03
 STRESS PERIOD TIME  86400.      1440.0      24.000      1.0000     2.73785E-03
         TOTAL TIME 1.62432E+07 2.70720E+05  4512.0      188.00     0.51472    


end timestep


start timestep kper="189" kstp="1" mode="normal"

 #Stressperiod Save Options

 BEGIN READING OUTPUT CONTROL FOR STRESS PERIOD 189
      ALL TIME STEPS WILL BE SAVED
      ALL TIME STEPS WILL BE SAVED

 END READING OUTPUT CONTROL FOR STRESS PERIOD 189


 PROCESSING STORAGE PERIOD DATA
 END PROCESSING STORAGE PERIOD DATA


 STRESS PERIOD 189 IS TRANSIENT


 REUSING DRNS FROM LAST STRESS PERIOD

 REUSING RIVS FROM LAST STRESS PERIOD

 REUSING RIVS FROM LAST STRESS PERIOD

 REUSING RCHS FROM LAST STRESS PERIOD
 UBDSV06 SAVING              DRN IN MODEL GWF_1            PACKAGE GWF_1           CONNECTED TO MODEL GWF_1            PACKAGE DRN_SYS1         ON UNIT   1018 AT TIME STEP      1, STRESS PERIOD    189
 UBDSV06 SAVING              RIV IN MODEL GWF_1            PACKAGE GWF_1           CONNECTED TO MODEL GWF_1            PACKAGE RIV_SYS1         ON UNIT   1018 AT TIME STEP      1, STRESS PERIOD    189
 UBDSV06 SAVING              RIV IN MODEL GWF_1            PACKAGE GWF_1           CONNECTED TO MODEL GWF_1            PACKAGE RIV_SYS2         ON UNIT   1018 AT TIME STEP      1, STRESS PERIOD    189

 HEAD WILL BE SAVED ON UNIT 1017 AT END OF TIME STEP    1, STRESS PERIOD  189


  VOLUME BUDGET FOR ENTIRE MODEL AT END OF TIME STEP    1, STRESS PERIOD 189
  ---------------------------------------------------------------------------------------------------

     CUMULATIVE VOLUME      L**3       RATES FOR THIS TIME STEP      L**3/T          PACKAGE NAME    
     ------------------                 ------------------------                     ----------------

           IN:                                      IN:
           ---                                      ---
              STO-SS =      227431.1822                STO-SS =           0.3918     STORAGE                          
                 DRN =           0.0000                   DRN =           0.0000     DRN_SYS1                         
                 RIV =      199804.0710                   RIV =        1275.7118     RIV_SYS1                         
                 RIV =           0.0000                   RIV =           0.0000     RIV_SYS2                         
                 RCH =           0.0000                   RCH =           0.0000     RCH_MSW                          

            TOTAL IN =      427235.2531              TOTAL IN =        1276.1036

          OUT:                                     OUT:
          ----                                     ----
              STO-SS =           0.0000                STO-SS =           0.0000     STORAGE                          
                 DRN =        7261.7195                   DRN =           9.3350     DRN_SYS1                         
                 RIV =      398659.7315                   RIV =        1227.1118     RIV_SYS1                         
                 RIV =       21315.4312                   RIV =          39.6608     RIV_SYS2                         
                 RCH =           0.0000                   RCH =           0.0000     RCH_MSW                          

           TOTAL OUT =      427236.8822             TOTAL OUT =        1276.1076

            IN - OUT =          -1.6290              IN - OUT =      -4.0024E-03

 PERCENT DISCREPANCY =          -0.00     PERCENT DISCREPANCY =          -0.00




         TIME SUMMARY AT END OF TIME STEP    1 IN STRESS PERIOD  189
                    SECONDS     MINUTES      HOURS       DAYS        YEARS
                    -----------------------------------------------------------
   TIME STEP LENGTH  86400.      1440.0      24.000      1.0000     2.73785E-03
 STRESS PERIOD TIME  86400.      1440.0      24.000      1.0000     2.73785E-03
         TOTAL TIME 1.63296E+07 2.72160E+05  4536.0      189.00     0.51745    


end timestep


start timestep kper="190" kstp="1" mode="normal"

 #Stressperiod Save Options

 BEGIN READING OUTPUT CONTROL FOR STRESS PERIOD 190
      ALL TIME STEPS WILL BE SAVED
      ALL TIME STEPS WILL BE SAVED

 END READING OUTPUT CONTROL FOR STRESS PERIOD 190


 PROCESSING STORAGE PERIOD DATA
 END PROCESSING STORAGE PERIOD DATA


 STRESS PERIOD 190 IS TRANSIENT


 REUSING DRNS FROM LAST STRESS PERIOD

 REUSING RIVS FROM LAST STRESS PERIOD

 REUSING RIVS FROM LAST STRESS PERIOD

 REUSING RCHS FROM LAST STRESS PERIOD
 UBDSV06 SAVING              DRN IN MODEL GWF_1            PACKAGE GWF_1           CONNECTED TO MODEL GWF_1            PACKAGE DRN_SYS1         ON UNIT   1018 AT TIME STEP      1, STRESS PERIOD    190
 UBDSV06 SAVING              RIV IN MODEL GWF_1            PACKAGE GWF_1           CONNECTED TO MODEL GWF_1            PACKAGE RIV_SYS1         ON UNIT   1018 AT TIME STEP      1, STRESS PERIOD    190
 UBDSV06 SAVING              RIV IN MODEL GWF_1            PACKAGE GWF_1           CONNECTED TO MODEL GWF_1            PACKAGE RIV_SYS2         ON UNIT   1018 AT TIME STEP      1, STRESS PERIOD    190

 HEAD WILL BE SAVED ON UNIT 1017 AT END OF TIME STEP    1, STRESS PERIOD  190


  VOLUME BUDGET FOR ENTIRE MODEL AT END OF TIME STEP    1, STRESS PERIOD 190
  ---------------------------------------------------------------------------------------------------

     CUMULATIVE VOLUME      L**3       RATES FOR THIS TIME STEP      L**3/T          PACKAGE NAME    
     ------------------                 ------------------------                     ----------------

           IN:                                      IN:
           ---                                      ---
              STO-SS =      227431.5535                STO-SS =           0.3713     STORAGE                          
                 DRN =           0.0000                   DRN =           0.0000     DRN_SYS1                         
                 RIV =      201079.7893                   RIV =        1275.7184     RIV_SYS1                         
                 RIV =           0.0000                   RIV =           0.0000     RIV_SYS2                         
                 RCH =           0.0000                   RCH =           0.0000     RCH_MSW                          

            TOTAL IN =      428511.3428              TOTAL IN =        1276.0897

          OUT:                                     OUT:
          ----                                     ----
              STO-SS =           0.0000                STO-SS =           0.0000     STORAGE                          
                 DRN =        7271.0537                   DRN =           9.3343     DRN_SYS1                         
                 RIV =      399886.8312                   RIV =        1227.0997     RIV_SYS1                         
                 RIV =       21355.0907                   RIV =          39.6595     RIV_SYS2                         
                 RCH =           0.0000                   RCH =           0.0000     RCH_MSW                          

           TOTAL OUT =      428512.9757             TOTAL OUT =        1276.0935

            IN - OUT =          -1.6328              IN - OUT =      -3.7928E-03

 PERCENT DISCREPANCY =          -0.00     PERCENT DISCREPANCY =          -0.00




         TIME SUMMARY AT END OF TIME STEP    1 IN STRESS PERIOD  190
                    SECONDS     MINUTES      HOURS       DAYS        YEARS
                    -----------------------------------------------------------
   TIME STEP LENGTH  86400.      1440.0      24.000      1.0000     2.73785E-03
 STRESS PERIOD TIME  86400.      1440.0      24.000      1.0000     2.73785E-03
         TOTAL TIME 1.64160E+07 2.73600E+05  4560.0      190.00     0.52019    


end timestep


start timestep kper="191" kstp="1" mode="normal"

 #Stressperiod Save Options

 BEGIN READING OUTPUT CONTROL FOR STRESS PERIOD 191
      ALL TIME STEPS WILL BE SAVED
      ALL TIME STEPS WILL BE SAVED

 END READING OUTPUT CONTROL FOR STRESS PERIOD 191


 PROCESSING STORAGE PERIOD DATA
 END PROCESSING STORAGE PERIOD DATA


 STRESS PERIOD 191 IS TRANSIENT


 REUSING DRNS FROM LAST STRESS PERIOD

 REUSING RIVS FROM LAST STRESS PERIOD

 REUSING RIVS FROM LAST STRESS PERIOD

 REUSING RCHS FROM LAST STRESS PERIOD
 UBDSV06 SAVING              DRN IN MODEL GWF_1            PACKAGE GWF_1           CONNECTED TO MODEL GWF_1            PACKAGE DRN_SYS1         ON UNIT   1018 AT TIME STEP      1, STRESS PERIOD    191
 UBDSV06 SAVING              RIV IN MODEL GWF_1            PACKAGE GWF_1           CONNECTED TO MODEL GWF_1            PACKAGE RIV_SYS1         ON UNIT   1018 AT TIME STEP      1, STRESS PERIOD    191
 UBDSV06 SAVING              RIV IN MODEL GWF_1            PACKAGE GWF_1           CONNECTED TO MODEL GWF_1            PACKAGE RIV_SYS2         ON UNIT   1018 AT TIME STEP      1, STRESS PERIOD    191

 HEAD WILL BE SAVED ON UNIT 1017 AT END OF TIME STEP    1, STRESS PERIOD  191


  VOLUME BUDGET FOR ENTIRE MODEL AT END OF TIME STEP    1, STRESS PERIOD 191
  ---------------------------------------------------------------------------------------------------

     CUMULATIVE VOLUME      L**3       RATES FOR THIS TIME STEP      L**3/T          PACKAGE NAME    
     ------------------                 ------------------------                     ----------------

           IN:                                      IN:
           ---                                      ---
              STO-SS =      227431.9054                STO-SS =           0.3519     STORAGE                          
                 DRN =           0.0000                   DRN =           0.0000     DRN_SYS1                         
                 RIV =      202355.5139                   RIV =        1275.7246     RIV_SYS1                         
                 RIV =           0.0000                   RIV =           0.0000     RIV_SYS2                         
                 RCH =           0.0000                   RCH =           0.0000     RCH_MSW                          

            TOTAL IN =      429787.4193              TOTAL IN =        1276.0765

          OUT:                                     OUT:
          ----                                     ----
              STO-SS =           0.0000                STO-SS =           0.0000     STORAGE                          
                 DRN =        7280.3874                   DRN =           9.3336     DRN_SYS1                         
                 RIV =      401113.9194                   RIV =        1227.0882     RIV_SYS1                         
                 RIV =       21394.7490                   RIV =          39.6583     RIV_SYS2                         
                 RCH =           0.0000                   RCH =           0.0000     RCH_MSW                          

           TOTAL OUT =      429789.0558             TOTAL OUT =        1276.0801

            IN - OUT =          -1.6364              IN - OUT =      -3.5943E-03

 PERCENT DISCREPANCY =          -0.00     PERCENT DISCREPANCY =          -0.00




         TIME SUMMARY AT END OF TIME STEP    1 IN STRESS PERIOD  191
                    SECONDS     MINUTES      HOURS       DAYS        YEARS
                    -----------------------------------------------------------
   TIME STEP LENGTH  86400.      1440.0      24.000      1.0000     2.73785E-03
 STRESS PERIOD TIME  86400.      1440.0      24.000      1.0000     2.73785E-03
         TOTAL TIME 1.65024E+07 2.75040E+05  4584.0      191.00     0.52293    


end timestep


start timestep kper="192" kstp="1" mode="normal"

 #Stressperiod Save Options

 BEGIN READING OUTPUT CONTROL FOR STRESS PERIOD 192
      ALL TIME STEPS WILL BE SAVED
      ALL TIME STEPS WILL BE SAVED

 END READING OUTPUT CONTROL FOR STRESS PERIOD 192


 PROCESSING STORAGE PERIOD DATA
 END PROCESSING STORAGE PERIOD DATA


 STRESS PERIOD 192 IS TRANSIENT


 REUSING DRNS FROM LAST STRESS PERIOD

 REUSING RIVS FROM LAST STRESS PERIOD

 REUSING RIVS FROM LAST STRESS PERIOD

 REUSING RCHS FROM LAST STRESS PERIOD
 UBDSV06 SAVING              DRN IN MODEL GWF_1            PACKAGE GWF_1           CONNECTED TO MODEL GWF_1            PACKAGE DRN_SYS1         ON UNIT   1018 AT TIME STEP      1, STRESS PERIOD    192
 UBDSV06 SAVING              RIV IN MODEL GWF_1            PACKAGE GWF_1           CONNECTED TO MODEL GWF_1            PACKAGE RIV_SYS1         ON UNIT   1018 AT TIME STEP      1, STRESS PERIOD    192
 UBDSV06 SAVING              RIV IN MODEL GWF_1            PACKAGE GWF_1           CONNECTED TO MODEL GWF_1            PACKAGE RIV_SYS2         ON UNIT   1018 AT TIME STEP      1, STRESS PERIOD    192

 HEAD WILL BE SAVED ON UNIT 1017 AT END OF TIME STEP    1, STRESS PERIOD  192


  VOLUME BUDGET FOR ENTIRE MODEL AT END OF TIME STEP    1, STRESS PERIOD 192
  ---------------------------------------------------------------------------------------------------

     CUMULATIVE VOLUME      L**3       RATES FOR THIS TIME STEP      L**3/T          PACKAGE NAME    
     ------------------                 ------------------------                     ----------------

           IN:                                      IN:
           ---                                      ---
              STO-SS =      227432.2389                STO-SS =           0.3335     STORAGE                          
                 DRN =           0.0000                   DRN =           0.0000     DRN_SYS1                         
                 RIV =      203631.2444                   RIV =        1275.7305     RIV_SYS1                         
                 RIV =           0.0000                   RIV =           0.0000     RIV_SYS2                         
                 RCH =           0.0000                   RCH =           0.0000     RCH_MSW                          

            TOTAL IN =      431063.4833              TOTAL IN =        1276.0640

          OUT:                                     OUT:
          ----                                     ----
              STO-SS =           0.0000                STO-SS =           0.0000     STORAGE                          
                 DRN =        7289.7204                   DRN =           9.3330     DRN_SYS1                         
                 RIV =      402340.9967                   RIV =        1227.0773     RIV_SYS1                         
                 RIV =       21434.4061                   RIV =          39.6571     RIV_SYS2                         
                 RCH =           0.0000                   RCH =           0.0000     RCH_MSW                          

           TOTAL OUT =      431065.1232             TOTAL OUT =        1276.0674

            IN - OUT =          -1.6398              IN - OUT =      -3.4061E-03

 PERCENT DISCREPANCY =          -0.00     PERCENT DISCREPANCY =          -0.00




         TIME SUMMARY AT END OF TIME STEP    1 IN STRESS PERIOD  192
                    SECONDS     MINUTES      HOURS       DAYS        YEARS
                    -----------------------------------------------------------
   TIME STEP LENGTH  86400.      1440.0      24.000      1.0000     2.73785E-03
 STRESS PERIOD TIME  86400.      1440.0      24.000      1.0000     2.73785E-03
         TOTAL TIME 1.65888E+07 2.76480E+05  4608.0      192.00     0.52567    


end timestep


start timestep kper="193" kstp="1" mode="normal"

 #Stressperiod Save Options

 BEGIN READING OUTPUT CONTROL FOR STRESS PERIOD 193
      ALL TIME STEPS WILL BE SAVED
      ALL TIME STEPS WILL BE SAVED

 END READING OUTPUT CONTROL FOR STRESS PERIOD 193


 PROCESSING STORAGE PERIOD DATA
 END PROCESSING STORAGE PERIOD DATA


 STRESS PERIOD 193 IS TRANSIENT


 REUSING DRNS FROM LAST STRESS PERIOD

 REUSING RIVS FROM LAST STRESS PERIOD

 REUSING RIVS FROM LAST STRESS PERIOD

 REUSING RCHS FROM LAST STRESS PERIOD
 UBDSV06 SAVING              DRN IN MODEL GWF_1            PACKAGE GWF_1           CONNECTED TO MODEL GWF_1            PACKAGE DRN_SYS1         ON UNIT   1018 AT TIME STEP      1, STRESS PERIOD    193
 UBDSV06 SAVING              RIV IN MODEL GWF_1            PACKAGE GWF_1           CONNECTED TO MODEL GWF_1            PACKAGE RIV_SYS1         ON UNIT   1018 AT TIME STEP      1, STRESS PERIOD    193
 UBDSV06 SAVING              RIV IN MODEL GWF_1            PACKAGE GWF_1           CONNECTED TO MODEL GWF_1            PACKAGE RIV_SYS2         ON UNIT   1018 AT TIME STEP      1, STRESS PERIOD    193

 HEAD WILL BE SAVED ON UNIT 1017 AT END OF TIME STEP    1, STRESS PERIOD  193


  VOLUME BUDGET FOR ENTIRE MODEL AT END OF TIME STEP    1, STRESS PERIOD 193
  ---------------------------------------------------------------------------------------------------

     CUMULATIVE VOLUME      L**3       RATES FOR THIS TIME STEP      L**3/T          PACKAGE NAME    
     ------------------                 ------------------------                     ----------------

           IN:                                      IN:
           ---                                      ---
              STO-SS =      227432.5550                STO-SS =           0.3161     STORAGE                          
                 DRN =           0.0000                   DRN =           0.0000     DRN_SYS1                         
                 RIV =      204906.9805                   RIV =        1275.7361     RIV_SYS1                         
                 RIV =           0.0000                   RIV =           0.0000     RIV_SYS2                         
                 RCH =           0.0000                   RCH =           0.0000     RCH_MSW                          

            TOTAL IN =      432339.5355              TOTAL IN =        1276.0522

          OUT:                                     OUT:
          ----                                     ----
              STO-SS =           0.0000                STO-SS =           0.0000     STORAGE                          
                 DRN =        7299.0528                   DRN =           9.3324     DRN_SYS1                         
                 RIV =      403568.0637                   RIV =        1227.0670     RIV_SYS1                         
                 RIV =       21474.0620                   RIV =          39.6560     RIV_SYS2                         
                 RCH =           0.0000                   RCH =           0.0000     RCH_MSW                          

           TOTAL OUT =      432341.1785             TOTAL OUT =        1276.0554

            IN - OUT =          -1.6431              IN - OUT =      -3.2278E-03

 PERCENT DISCREPANCY =          -0.00     PERCENT DISCREPANCY =          -0.00




         TIME SUMMARY AT END OF TIME STEP    1 IN STRESS PERIOD  193
                    SECONDS     MINUTES      HOURS       DAYS        YEARS
                    -----------------------------------------------------------
   TIME STEP LENGTH  86400.      1440.0      24.000      1.0000     2.73785E-03
 STRESS PERIOD TIME  86400.      1440.0      24.000      1.0000     2.73785E-03
         TOTAL TIME 1.66752E+07 2.77920E+05  4632.0      193.00     0.52841    


end timestep


start timestep kper="194" kstp="1" mode="normal"

 #Stressperiod Save Options

 BEGIN READING OUTPUT CONTROL FOR STRESS PERIOD 194
      ALL TIME STEPS WILL BE SAVED
      ALL TIME STEPS WILL BE SAVED

 END READING OUTPUT CONTROL FOR STRESS PERIOD 194


 PROCESSING STORAGE PERIOD DATA
 END PROCESSING STORAGE PERIOD DATA


 STRESS PERIOD 194 IS TRANSIENT


 REUSING DRNS FROM LAST STRESS PERIOD

 REUSING RIVS FROM LAST STRESS PERIOD

 REUSING RIVS FROM LAST STRESS PERIOD

 REUSING RCHS FROM LAST STRESS PERIOD
 UBDSV06 SAVING              DRN IN MODEL GWF_1            PACKAGE GWF_1           CONNECTED TO MODEL GWF_1            PACKAGE DRN_SYS1         ON UNIT   1018 AT TIME STEP      1, STRESS PERIOD    194
 UBDSV06 SAVING              RIV IN MODEL GWF_1            PACKAGE GWF_1           CONNECTED TO MODEL GWF_1            PACKAGE RIV_SYS1         ON UNIT   1018 AT TIME STEP      1, STRESS PERIOD    194
 UBDSV06 SAVING              RIV IN MODEL GWF_1            PACKAGE GWF_1           CONNECTED TO MODEL GWF_1            PACKAGE RIV_SYS2         ON UNIT   1018 AT TIME STEP      1, STRESS PERIOD    194

 HEAD WILL BE SAVED ON UNIT 1017 AT END OF TIME STEP    1, STRESS PERIOD  194


  VOLUME BUDGET FOR ENTIRE MODEL AT END OF TIME STEP    1, STRESS PERIOD 194
  ---------------------------------------------------------------------------------------------------

     CUMULATIVE VOLUME      L**3       RATES FOR THIS TIME STEP      L**3/T          PACKAGE NAME    
     ------------------                 ------------------------                     ----------------

           IN:                                      IN:
           ---                                      ---
              STO-SS =      227432.8546                STO-SS =           0.2996     STORAGE                          
                 DRN =           0.0000                   DRN =           0.0000     DRN_SYS1                         
                 RIV =      206182.7218                   RIV =        1275.7414     RIV_SYS1                         
                 RIV =           0.0000                   RIV =           0.0000     RIV_SYS2                         
                 RCH =           0.0000                   RCH =           0.0000     RCH_MSW                          

            TOTAL IN =      433615.5764              TOTAL IN =        1276.0409

          OUT:                                     OUT:
          ----                                     ----
              STO-SS =           0.0000                STO-SS =           0.0000     STORAGE                          
                 DRN =        7308.3847                   DRN =           9.3319     DRN_SYS1                         
                 RIV =      404795.1209                   RIV =        1227.0572     RIV_SYS1                         
                 RIV =       21513.7169                   RIV =          39.6549     RIV_SYS2                         
                 RCH =           0.0000                   RCH =           0.0000     RCH_MSW                          

           TOTAL OUT =      433617.2225             TOTAL OUT =        1276.0440

            IN - OUT =          -1.6461              IN - OUT =      -3.0589E-03

 PERCENT DISCREPANCY =          -0.00     PERCENT DISCREPANCY =          -0.00




         TIME SUMMARY AT END OF TIME STEP    1 IN STRESS PERIOD  194
                    SECONDS     MINUTES      HOURS       DAYS        YEARS
                    -----------------------------------------------------------
   TIME STEP LENGTH  86400.      1440.0      24.000      1.0000     2.73785E-03
 STRESS PERIOD TIME  86400.      1440.0      24.000      1.0000     2.73785E-03
         TOTAL TIME 1.67616E+07 2.79360E+05  4656.0      194.00     0.53114    


end timestep


start timestep kper="195" kstp="1" mode="normal"

 #Stressperiod Save Options

 BEGIN READING OUTPUT CONTROL FOR STRESS PERIOD 195
      ALL TIME STEPS WILL BE SAVED
      ALL TIME STEPS WILL BE SAVED

 END READING OUTPUT CONTROL FOR STRESS PERIOD 195


 PROCESSING STORAGE PERIOD DATA
 END PROCESSING STORAGE PERIOD DATA


 STRESS PERIOD 195 IS TRANSIENT


 REUSING DRNS FROM LAST STRESS PERIOD

 REUSING RIVS FROM LAST STRESS PERIOD

 REUSING RIVS FROM LAST STRESS PERIOD

 REUSING RCHS FROM LAST STRESS PERIOD
 UBDSV06 SAVING              DRN IN MODEL GWF_1            PACKAGE GWF_1           CONNECTED TO MODEL GWF_1            PACKAGE DRN_SYS1         ON UNIT   1018 AT TIME STEP      1, STRESS PERIOD    195
 UBDSV06 SAVING              RIV IN MODEL GWF_1            PACKAGE GWF_1           CONNECTED TO MODEL GWF_1            PACKAGE RIV_SYS1         ON UNIT   1018 AT TIME STEP      1, STRESS PERIOD    195
 UBDSV06 SAVING              RIV IN MODEL GWF_1            PACKAGE GWF_1           CONNECTED TO MODEL GWF_1            PACKAGE RIV_SYS2         ON UNIT   1018 AT TIME STEP      1, STRESS PERIOD    195

 HEAD WILL BE SAVED ON UNIT 1017 AT END OF TIME STEP    1, STRESS PERIOD  195


  VOLUME BUDGET FOR ENTIRE MODEL AT END OF TIME STEP    1, STRESS PERIOD 195
  ---------------------------------------------------------------------------------------------------

     CUMULATIVE VOLUME      L**3       RATES FOR THIS TIME STEP      L**3/T          PACKAGE NAME    
     ------------------                 ------------------------                     ----------------

           IN:                                      IN:
           ---                                      ---
              STO-SS =      227433.1385                STO-SS =           0.2839     STORAGE                          
                 DRN =           0.0000                   DRN =           0.0000     DRN_SYS1                         
                 RIV =      207458.4682                   RIV =        1275.7464     RIV_SYS1                         
                 RIV =           0.0000                   RIV =           0.0000     RIV_SYS2                         
                 RCH =           0.0000                   RCH =           0.0000     RCH_MSW                          

            TOTAL IN =      434891.6067              TOTAL IN =        1276.0303

          OUT:                                     OUT:
          ----                                     ----
              STO-SS =           0.0000                STO-SS =           0.0000     STORAGE                          
                 DRN =        7317.7161                   DRN =           9.3314     DRN_SYS1                         
                 RIV =      406022.1688                   RIV =        1227.0479     RIV_SYS1                         
                 RIV =       21553.3708                   RIV =          39.6539     RIV_SYS2                         
                 RCH =           0.0000                   RCH =           0.0000     RCH_MSW                          

           TOTAL OUT =      434893.2557             TOTAL OUT =        1276.0332

            IN - OUT =          -1.6490              IN - OUT =      -2.8988E-03

 PERCENT DISCREPANCY =          -0.00     PERCENT DISCREPANCY =          -0.00




         TIME SUMMARY AT END OF TIME STEP    1 IN STRESS PERIOD  195
                    SECONDS     MINUTES      HOURS       DAYS        YEARS
                    -----------------------------------------------------------
   TIME STEP LENGTH  86400.      1440.0      24.000      1.0000     2.73785E-03
 STRESS PERIOD TIME  86400.      1440.0      24.000      1.0000     2.73785E-03
         TOTAL TIME 1.68480E+07 2.80800E+05  4680.0      195.00     0.53388    


end timestep


start timestep kper="196" kstp="1" mode="normal"

 #Stressperiod Save Options

 BEGIN READING OUTPUT CONTROL FOR STRESS PERIOD 196
      ALL TIME STEPS WILL BE SAVED
      ALL TIME STEPS WILL BE SAVED

 END READING OUTPUT CONTROL FOR STRESS PERIOD 196


 PROCESSING STORAGE PERIOD DATA
 END PROCESSING STORAGE PERIOD DATA


 STRESS PERIOD 196 IS TRANSIENT


 REUSING DRNS FROM LAST STRESS PERIOD

 REUSING RIVS FROM LAST STRESS PERIOD

 REUSING RIVS FROM LAST STRESS PERIOD

 REUSING RCHS FROM LAST STRESS PERIOD
 UBDSV06 SAVING              DRN IN MODEL GWF_1            PACKAGE GWF_1           CONNECTED TO MODEL GWF_1            PACKAGE DRN_SYS1         ON UNIT   1018 AT TIME STEP      1, STRESS PERIOD    196
 UBDSV06 SAVING              RIV IN MODEL GWF_1            PACKAGE GWF_1           CONNECTED TO MODEL GWF_1            PACKAGE RIV_SYS1         ON UNIT   1018 AT TIME STEP      1, STRESS PERIOD    196
 UBDSV06 SAVING              RIV IN MODEL GWF_1            PACKAGE GWF_1           CONNECTED TO MODEL GWF_1            PACKAGE RIV_SYS2         ON UNIT   1018 AT TIME STEP      1, STRESS PERIOD    196

 HEAD WILL BE SAVED ON UNIT 1017 AT END OF TIME STEP    1, STRESS PERIOD  196


  VOLUME BUDGET FOR ENTIRE MODEL AT END OF TIME STEP    1, STRESS PERIOD 196
  ---------------------------------------------------------------------------------------------------

     CUMULATIVE VOLUME      L**3       RATES FOR THIS TIME STEP      L**3/T          PACKAGE NAME    
     ------------------                 ------------------------                     ----------------

           IN:                                      IN:
           ---                                      ---
              STO-SS =      227433.4075                STO-SS =           0.2691     STORAGE                          
                 DRN =           0.0000                   DRN =           0.0000     DRN_SYS1                         
                 RIV =      208734.2194                   RIV =        1275.7512     RIV_SYS1                         
                 RIV =           0.0000                   RIV =           0.0000     RIV_SYS2                         
                 RCH =           0.0000                   RCH =           0.0000     RCH_MSW                          

            TOTAL IN =      436167.6269              TOTAL IN =        1276.0202

          OUT:                                     OUT:
          ----                                     ----
              STO-SS =           0.0000                STO-SS =           0.0000     STORAGE                          
                 DRN =        7327.0469                   DRN =           9.3309     DRN_SYS1                         
                 RIV =      407249.2080                   RIV =        1227.0391     RIV_SYS1                         
                 RIV =       21593.0238                   RIV =          39.6529     RIV_SYS2                         
                 RCH =           0.0000                   RCH =           0.0000     RCH_MSW                          

           TOTAL OUT =      436169.2787             TOTAL OUT =        1276.0230

            IN - OUT =          -1.6518              IN - OUT =      -2.7471E-03

 PERCENT DISCREPANCY =          -0.00     PERCENT DISCREPANCY =          -0.00




         TIME SUMMARY AT END OF TIME STEP    1 IN STRESS PERIOD  196
                    SECONDS     MINUTES      HOURS       DAYS        YEARS
                    -----------------------------------------------------------
   TIME STEP LENGTH  86400.      1440.0      24.000      1.0000     2.73785E-03
 STRESS PERIOD TIME  86400.      1440.0      24.000      1.0000     2.73785E-03
         TOTAL TIME 1.69344E+07 2.82240E+05  4704.0      196.00     0.53662    


end timestep


start timestep kper="197" kstp="1" mode="normal"

 #Stressperiod Save Options

 BEGIN READING OUTPUT CONTROL FOR STRESS PERIOD 197
      ALL TIME STEPS WILL BE SAVED
      ALL TIME STEPS WILL BE SAVED

 END READING OUTPUT CONTROL FOR STRESS PERIOD 197


 PROCESSING STORAGE PERIOD DATA
 END PROCESSING STORAGE PERIOD DATA


 STRESS PERIOD 197 IS TRANSIENT


 REUSING DRNS FROM LAST STRESS PERIOD

 REUSING RIVS FROM LAST STRESS PERIOD

 REUSING RIVS FROM LAST STRESS PERIOD

 REUSING RCHS FROM LAST STRESS PERIOD
 UBDSV06 SAVING              DRN IN MODEL GWF_1            PACKAGE GWF_1           CONNECTED TO MODEL GWF_1            PACKAGE DRN_SYS1         ON UNIT   1018 AT TIME STEP      1, STRESS PERIOD    197
 UBDSV06 SAVING              RIV IN MODEL GWF_1            PACKAGE GWF_1           CONNECTED TO MODEL GWF_1            PACKAGE RIV_SYS1         ON UNIT   1018 AT TIME STEP      1, STRESS PERIOD    197
 UBDSV06 SAVING              RIV IN MODEL GWF_1            PACKAGE GWF_1           CONNECTED TO MODEL GWF_1            PACKAGE RIV_SYS2         ON UNIT   1018 AT TIME STEP      1, STRESS PERIOD    197

 HEAD WILL BE SAVED ON UNIT 1017 AT END OF TIME STEP    1, STRESS PERIOD  197


  VOLUME BUDGET FOR ENTIRE MODEL AT END OF TIME STEP    1, STRESS PERIOD 197
  ---------------------------------------------------------------------------------------------------

     CUMULATIVE VOLUME      L**3       RATES FOR THIS TIME STEP      L**3/T          PACKAGE NAME    
     ------------------                 ------------------------                     ----------------

           IN:                                      IN:
           ---                                      ---
              STO-SS =      227433.6625                STO-SS =           0.2550     STORAGE                          
                 DRN =           0.0000                   DRN =           0.0000     DRN_SYS1                         
                 RIV =      210009.9751                   RIV =        1275.7557     RIV_SYS1                         
                 RIV =           0.0000                   RIV =           0.0000     RIV_SYS2                         
                 RCH =           0.0000                   RCH =           0.0000     RCH_MSW                          

            TOTAL IN =      437443.6376              TOTAL IN =        1276.0107

          OUT:                                     OUT:
          ----                                     ----
              STO-SS =           0.0000                STO-SS =           0.0000     STORAGE                          
                 DRN =        7336.3774                   DRN =           9.3304     DRN_SYS1                         
                 RIV =      408476.2388                   RIV =        1227.0308     RIV_SYS1                         
                 RIV =       21632.6758                   RIV =          39.6520     RIV_SYS2                         
                 RCH =           0.0000                   RCH =           0.0000     RCH_MSW                          

           TOTAL OUT =      437445.2920             TOTAL OUT =        1276.0133

            IN - OUT =          -1.6544              IN - OUT =      -2.6033E-03

 PERCENT DISCREPANCY =          -0.00     PERCENT DISCREPANCY =          -0.00




         TIME SUMMARY AT END OF TIME STEP    1 IN STRESS PERIOD  197
                    SECONDS     MINUTES      HOURS       DAYS        YEARS
                    -----------------------------------------------------------
   TIME STEP LENGTH  86400.      1440.0      24.000      1.0000     2.73785E-03
 STRESS PERIOD TIME  86400.      1440.0      24.000      1.0000     2.73785E-03
         TOTAL TIME 1.70208E+07 2.83680E+05  4728.0      197.00     0.53936    


end timestep


start timestep kper="198" kstp="1" mode="normal"

 #Stressperiod Save Options

 BEGIN READING OUTPUT CONTROL FOR STRESS PERIOD 198
      ALL TIME STEPS WILL BE SAVED
      ALL TIME STEPS WILL BE SAVED

 END READING OUTPUT CONTROL FOR STRESS PERIOD 198


 PROCESSING STORAGE PERIOD DATA
 END PROCESSING STORAGE PERIOD DATA


 STRESS PERIOD 198 IS TRANSIENT


 REUSING DRNS FROM LAST STRESS PERIOD

 REUSING RIVS FROM LAST STRESS PERIOD

 REUSING RIVS FROM LAST STRESS PERIOD

 REUSING RCHS FROM LAST STRESS PERIOD
 UBDSV06 SAVING              DRN IN MODEL GWF_1            PACKAGE GWF_1           CONNECTED TO MODEL GWF_1            PACKAGE DRN_SYS1         ON UNIT   1018 AT TIME STEP      1, STRESS PERIOD    198
 UBDSV06 SAVING              RIV IN MODEL GWF_1            PACKAGE GWF_1           CONNECTED TO MODEL GWF_1            PACKAGE RIV_SYS1         ON UNIT   1018 AT TIME STEP      1, STRESS PERIOD    198
 UBDSV06 SAVING              RIV IN MODEL GWF_1            PACKAGE GWF_1           CONNECTED TO MODEL GWF_1            PACKAGE RIV_SYS2         ON UNIT   1018 AT TIME STEP      1, STRESS PERIOD    198

 HEAD WILL BE SAVED ON UNIT 1017 AT END OF TIME STEP    1, STRESS PERIOD  198


  VOLUME BUDGET FOR ENTIRE MODEL AT END OF TIME STEP    1, STRESS PERIOD 198
  ---------------------------------------------------------------------------------------------------

     CUMULATIVE VOLUME      L**3       RATES FOR THIS TIME STEP      L**3/T          PACKAGE NAME    
     ------------------                 ------------------------                     ----------------

           IN:                                      IN:
           ---                                      ---
              STO-SS =      227433.9042                STO-SS =           0.2417     STORAGE                          
                 DRN =           0.0000                   DRN =           0.0000     DRN_SYS1                         
                 RIV =      211285.7350                   RIV =        1275.7599     RIV_SYS1                         
                 RIV =           0.0000                   RIV =           0.0000     RIV_SYS2                         
                 RCH =           0.0000                   RCH =           0.0000     RCH_MSW                          

            TOTAL IN =      438719.6392              TOTAL IN =        1276.0016

          OUT:                                     OUT:
          ----                                     ----
              STO-SS =           0.0000                STO-SS =           0.0000     STORAGE                          
                 DRN =        7345.7073                   DRN =           9.3300     DRN_SYS1                         
                 RIV =      409703.2617                   RIV =        1227.0229     RIV_SYS1                         
                 RIV =       21672.3270                   RIV =          39.6512     RIV_SYS2                         
                 RCH =           0.0000                   RCH =           0.0000     RCH_MSW                          

           TOTAL OUT =      438721.2960             TOTAL OUT =        1276.0041

            IN - OUT =          -1.6568              IN - OUT =      -2.4670E-03

 PERCENT DISCREPANCY =          -0.00     PERCENT DISCREPANCY =          -0.00




         TIME SUMMARY AT END OF TIME STEP    1 IN STRESS PERIOD  198
                    SECONDS     MINUTES      HOURS       DAYS        YEARS
                    -----------------------------------------------------------
   TIME STEP LENGTH  86400.      1440.0      24.000      1.0000     2.73785E-03
 STRESS PERIOD TIME  86400.      1440.0      24.000      1.0000     2.73785E-03
         TOTAL TIME 1.71072E+07 2.85120E+05  4752.0      198.00     0.54209    


end timestep


start timestep kper="199" kstp="1" mode="normal"

 #Stressperiod Save Options

 BEGIN READING OUTPUT CONTROL FOR STRESS PERIOD 199
      ALL TIME STEPS WILL BE SAVED
      ALL TIME STEPS WILL BE SAVED

 END READING OUTPUT CONTROL FOR STRESS PERIOD 199


 PROCESSING STORAGE PERIOD DATA
 END PROCESSING STORAGE PERIOD DATA


 STRESS PERIOD 199 IS TRANSIENT


 REUSING DRNS FROM LAST STRESS PERIOD

 REUSING RIVS FROM LAST STRESS PERIOD

 REUSING RIVS FROM LAST STRESS PERIOD

 REUSING RCHS FROM LAST STRESS PERIOD
 UBDSV06 SAVING              DRN IN MODEL GWF_1            PACKAGE GWF_1           CONNECTED TO MODEL GWF_1            PACKAGE DRN_SYS1         ON UNIT   1018 AT TIME STEP      1, STRESS PERIOD    199
 UBDSV06 SAVING              RIV IN MODEL GWF_1            PACKAGE GWF_1           CONNECTED TO MODEL GWF_1            PACKAGE RIV_SYS1         ON UNIT   1018 AT TIME STEP      1, STRESS PERIOD    199
 UBDSV06 SAVING              RIV IN MODEL GWF_1            PACKAGE GWF_1           CONNECTED TO MODEL GWF_1            PACKAGE RIV_SYS2         ON UNIT   1018 AT TIME STEP      1, STRESS PERIOD    199

 HEAD WILL BE SAVED ON UNIT 1017 AT END OF TIME STEP    1, STRESS PERIOD  199


  VOLUME BUDGET FOR ENTIRE MODEL AT END OF TIME STEP    1, STRESS PERIOD 199
  ---------------------------------------------------------------------------------------------------

     CUMULATIVE VOLUME      L**3       RATES FOR THIS TIME STEP      L**3/T          PACKAGE NAME    
     ------------------                 ------------------------                     ----------------

           IN:                                      IN:
           ---                                      ---
              STO-SS =      227434.1332                STO-SS =           0.2290     STORAGE                          
                 DRN =           0.0000                   DRN =           0.0000     DRN_SYS1                         
                 RIV =      212561.4990                   RIV =        1275.7640     RIV_SYS1                         
                 RIV =           0.0000                   RIV =           0.0000     RIV_SYS2                         
                 RCH =           0.0000                   RCH =           0.0000     RCH_MSW                          

            TOTAL IN =      439995.6322              TOTAL IN =        1275.9930

          OUT:                                     OUT:
          ----                                     ----
              STO-SS =           0.0000                STO-SS =           0.0000     STORAGE                          
                 DRN =        7355.0368                   DRN =           9.3295     DRN_SYS1                         
                 RIV =      410930.2772                   RIV =        1227.0154     RIV_SYS1                         
                 RIV =       21711.9774                   RIV =          39.6504     RIV_SYS2                         
                 RCH =           0.0000                   RCH =           0.0000     RCH_MSW                          

           TOTAL OUT =      439997.2914             TOTAL OUT =        1275.9954

            IN - OUT =          -1.6592              IN - OUT =      -2.3379E-03

 PERCENT DISCREPANCY =          -0.00     PERCENT DISCREPANCY =          -0.00




         TIME SUMMARY AT END OF TIME STEP    1 IN STRESS PERIOD  199
                    SECONDS     MINUTES      HOURS       DAYS        YEARS
                    -----------------------------------------------------------
   TIME STEP LENGTH  86400.      1440.0      24.000      1.0000     2.73785E-03
 STRESS PERIOD TIME  86400.      1440.0      24.000      1.0000     2.73785E-03
         TOTAL TIME 1.71936E+07 2.86560E+05  4776.0      199.00     0.54483    


end timestep


start timestep kper="200" kstp="1" mode="normal"

 #Stressperiod Save Options

 BEGIN READING OUTPUT CONTROL FOR STRESS PERIOD 200
      ALL TIME STEPS WILL BE SAVED
      ALL TIME STEPS WILL BE SAVED

 END READING OUTPUT CONTROL FOR STRESS PERIOD 200


 PROCESSING STORAGE PERIOD DATA
 END PROCESSING STORAGE PERIOD DATA


 STRESS PERIOD 200 IS TRANSIENT


 REUSING DRNS FROM LAST STRESS PERIOD

 REUSING RIVS FROM LAST STRESS PERIOD

 REUSING RIVS FROM LAST STRESS PERIOD

 REUSING RCHS FROM LAST STRESS PERIOD
 UBDSV06 SAVING              DRN IN MODEL GWF_1            PACKAGE GWF_1           CONNECTED TO MODEL GWF_1            PACKAGE DRN_SYS1         ON UNIT   1018 AT TIME STEP      1, STRESS PERIOD    200
 UBDSV06 SAVING              RIV IN MODEL GWF_1            PACKAGE GWF_1           CONNECTED TO MODEL GWF_1            PACKAGE RIV_SYS1         ON UNIT   1018 AT TIME STEP      1, STRESS PERIOD    200
 UBDSV06 SAVING              RIV IN MODEL GWF_1            PACKAGE GWF_1           CONNECTED TO MODEL GWF_1            PACKAGE RIV_SYS2         ON UNIT   1018 AT TIME STEP      1, STRESS PERIOD    200

 HEAD WILL BE SAVED ON UNIT 1017 AT END OF TIME STEP    1, STRESS PERIOD  200


  VOLUME BUDGET FOR ENTIRE MODEL AT END OF TIME STEP    1, STRESS PERIOD 200
  ---------------------------------------------------------------------------------------------------

     CUMULATIVE VOLUME      L**3       RATES FOR THIS TIME STEP      L**3/T          PACKAGE NAME    
     ------------------                 ------------------------                     ----------------

           IN:                                      IN:
           ---                                      ---
              STO-SS =      227434.3503                STO-SS =           0.2171     STORAGE                          
                 DRN =           0.0000                   DRN =           0.0000     DRN_SYS1                         
                 RIV =      213837.2669                   RIV =        1275.7678     RIV_SYS1                         
                 RIV =           0.0000                   RIV =           0.0000     RIV_SYS2                         
                 RCH =           0.0000                   RCH =           0.0000     RCH_MSW                          

            TOTAL IN =      441271.6171              TOTAL IN =        1275.9849

          OUT:                                     OUT:
          ----                                     ----
              STO-SS =           0.0000                STO-SS =           0.0000     STORAGE                          
                 DRN =        7364.3660                   DRN =           9.3291     DRN_SYS1                         
                 RIV =      412157.2855                   RIV =        1227.0084     RIV_SYS1                         
                 RIV =       21751.6270                   RIV =          39.6496     RIV_SYS2                         
                 RCH =           0.0000                   RCH =           0.0000     RCH_MSW                          

           TOTAL OUT =      441273.2785             TOTAL OUT =        1275.9871

            IN - OUT =          -1.6614              IN - OUT =      -2.2156E-03

 PERCENT DISCREPANCY =          -0.00     PERCENT DISCREPANCY =          -0.00




         TIME SUMMARY AT END OF TIME STEP    1 IN STRESS PERIOD  200
                    SECONDS     MINUTES      HOURS       DAYS        YEARS
                    -----------------------------------------------------------
   TIME STEP LENGTH  86400.      1440.0      24.000      1.0000     2.73785E-03
 STRESS PERIOD TIME  86400.      1440.0      24.000      1.0000     2.73785E-03
         TOTAL TIME 1.72800E+07 2.88000E+05  4800.0      200.00     0.54757    


end timestep


start timestep kper="201" kstp="1" mode="normal"

 #Stressperiod Save Options

 BEGIN READING OUTPUT CONTROL FOR STRESS PERIOD 201
      ALL TIME STEPS WILL BE SAVED
      ALL TIME STEPS WILL BE SAVED

 END READING OUTPUT CONTROL FOR STRESS PERIOD 201


 PROCESSING STORAGE PERIOD DATA
 END PROCESSING STORAGE PERIOD DATA


 STRESS PERIOD 201 IS TRANSIENT


 REUSING DRNS FROM LAST STRESS PERIOD

 REUSING RIVS FROM LAST STRESS PERIOD

 REUSING RIVS FROM LAST STRESS PERIOD

 REUSING RCHS FROM LAST STRESS PERIOD
 UBDSV06 SAVING              DRN IN MODEL GWF_1            PACKAGE GWF_1           CONNECTED TO MODEL GWF_1            PACKAGE DRN_SYS1         ON UNIT   1018 AT TIME STEP      1, STRESS PERIOD    201
 UBDSV06 SAVING              RIV IN MODEL GWF_1            PACKAGE GWF_1           CONNECTED TO MODEL GWF_1            PACKAGE RIV_SYS1         ON UNIT   1018 AT TIME STEP      1, STRESS PERIOD    201
 UBDSV06 SAVING              RIV IN MODEL GWF_1            PACKAGE GWF_1           CONNECTED TO MODEL GWF_1            PACKAGE RIV_SYS2         ON UNIT   1018 AT TIME STEP      1, STRESS PERIOD    201

 HEAD WILL BE SAVED ON UNIT 1017 AT END OF TIME STEP    1, STRESS PERIOD  201


  VOLUME BUDGET FOR ENTIRE MODEL AT END OF TIME STEP    1, STRESS PERIOD 201
  ---------------------------------------------------------------------------------------------------

     CUMULATIVE VOLUME      L**3       RATES FOR THIS TIME STEP      L**3/T          PACKAGE NAME    
     ------------------                 ------------------------                     ----------------

           IN:                                      IN:
           ---                                      ---
              STO-SS =      227434.5560                STO-SS =           0.2057     STORAGE                          
                 DRN =           0.0000                   DRN =           0.0000     DRN_SYS1                         
                 RIV =      215113.0384                   RIV =        1275.7715     RIV_SYS1                         
                 RIV =           0.0000                   RIV =           0.0000     RIV_SYS2                         
                 RCH =           0.0000                   RCH =           0.0000     RCH_MSW                          

            TOTAL IN =      442547.5943              TOTAL IN =        1275.9772

          OUT:                                     OUT:
          ----                                     ----
              STO-SS =           0.0000                STO-SS =           0.0000     STORAGE                          
                 DRN =        7373.6948                   DRN =           9.3288     DRN_SYS1                         
                 RIV =      413384.2872                   RIV =        1227.0016     RIV_SYS1                         
                 RIV =       21791.2759                   RIV =          39.6489     RIV_SYS2                         
                 RCH =           0.0000                   RCH =           0.0000     RCH_MSW                          

           TOTAL OUT =      442549.2578             TOTAL OUT =        1275.9793

            IN - OUT =          -1.6635              IN - OUT =      -2.0997E-03

 PERCENT DISCREPANCY =          -0.00     PERCENT DISCREPANCY =          -0.00




         TIME SUMMARY AT END OF TIME STEP    1 IN STRESS PERIOD  201
                    SECONDS     MINUTES      HOURS       DAYS        YEARS
                    -----------------------------------------------------------
   TIME STEP LENGTH  86400.      1440.0      24.000      1.0000     2.73785E-03
 STRESS PERIOD TIME  86400.      1440.0      24.000      1.0000     2.73785E-03
         TOTAL TIME 1.73664E+07 2.89440E+05  4824.0      201.00     0.55031    


end timestep


start timestep kper="202" kstp="1" mode="normal"

 #Stressperiod Save Options

 BEGIN READING OUTPUT CONTROL FOR STRESS PERIOD 202
      ALL TIME STEPS WILL BE SAVED
      ALL TIME STEPS WILL BE SAVED

 END READING OUTPUT CONTROL FOR STRESS PERIOD 202


 PROCESSING STORAGE PERIOD DATA
 END PROCESSING STORAGE PERIOD DATA


 STRESS PERIOD 202 IS TRANSIENT


 REUSING DRNS FROM LAST STRESS PERIOD

 REUSING RIVS FROM LAST STRESS PERIOD

 REUSING RIVS FROM LAST STRESS PERIOD

 REUSING RCHS FROM LAST STRESS PERIOD
 UBDSV06 SAVING              DRN IN MODEL GWF_1            PACKAGE GWF_1           CONNECTED TO MODEL GWF_1            PACKAGE DRN_SYS1         ON UNIT   1018 AT TIME STEP      1, STRESS PERIOD    202
 UBDSV06 SAVING              RIV IN MODEL GWF_1            PACKAGE GWF_1           CONNECTED TO MODEL GWF_1            PACKAGE RIV_SYS1         ON UNIT   1018 AT TIME STEP      1, STRESS PERIOD    202
 UBDSV06 SAVING              RIV IN MODEL GWF_1            PACKAGE GWF_1           CONNECTED TO MODEL GWF_1            PACKAGE RIV_SYS2         ON UNIT   1018 AT TIME STEP      1, STRESS PERIOD    202

 HEAD WILL BE SAVED ON UNIT 1017 AT END OF TIME STEP    1, STRESS PERIOD  202


  VOLUME BUDGET FOR ENTIRE MODEL AT END OF TIME STEP    1, STRESS PERIOD 202
  ---------------------------------------------------------------------------------------------------

     CUMULATIVE VOLUME      L**3       RATES FOR THIS TIME STEP      L**3/T          PACKAGE NAME    
     ------------------                 ------------------------                     ----------------

           IN:                                      IN:
           ---                                      ---
              STO-SS =      227434.7509                STO-SS =           0.1950     STORAGE                          
                 DRN =           0.0000                   DRN =           0.0000     DRN_SYS1                         
                 RIV =      216388.8133                   RIV =        1275.7749     RIV_SYS1                         
                 RIV =           0.0000                   RIV =           0.0000     RIV_SYS2                         
                 RCH =           0.0000                   RCH =           0.0000     RCH_MSW                          

            TOTAL IN =      443823.5642              TOTAL IN =        1275.9699

          OUT:                                     OUT:
          ----                                     ----
              STO-SS =           0.0000                STO-SS =           0.0000     STORAGE                          
                 DRN =        7383.0232                   DRN =           9.3284     DRN_SYS1                         
                 RIV =      414611.2824                   RIV =        1226.9953     RIV_SYS1                         
                 RIV =       21830.9241                   RIV =          39.6482     RIV_SYS2                         
                 RCH =           0.0000                   RCH =           0.0000     RCH_MSW                          

           TOTAL OUT =      443825.2297             TOTAL OUT =        1275.9719

            IN - OUT =          -1.6655              IN - OUT =      -1.9898E-03

 PERCENT DISCREPANCY =          -0.00     PERCENT DISCREPANCY =          -0.00




         TIME SUMMARY AT END OF TIME STEP    1 IN STRESS PERIOD  202
                    SECONDS     MINUTES      HOURS       DAYS        YEARS
                    -----------------------------------------------------------
   TIME STEP LENGTH  86400.      1440.0      24.000      1.0000     2.73785E-03
 STRESS PERIOD TIME  86400.      1440.0      24.000      1.0000     2.73785E-03
         TOTAL TIME 1.74528E+07 2.90880E+05  4848.0      202.00     0.55305    


end timestep


start timestep kper="203" kstp="1" mode="normal"

 #Stressperiod Save Options

 BEGIN READING OUTPUT CONTROL FOR STRESS PERIOD 203
      ALL TIME STEPS WILL BE SAVED
      ALL TIME STEPS WILL BE SAVED

 END READING OUTPUT CONTROL FOR STRESS PERIOD 203


 PROCESSING STORAGE PERIOD DATA
 END PROCESSING STORAGE PERIOD DATA


 STRESS PERIOD 203 IS TRANSIENT


 REUSING DRNS FROM LAST STRESS PERIOD

 REUSING RIVS FROM LAST STRESS PERIOD

 REUSING RIVS FROM LAST STRESS PERIOD

 REUSING RCHS FROM LAST STRESS PERIOD
 UBDSV06 SAVING              DRN IN MODEL GWF_1            PACKAGE GWF_1           CONNECTED TO MODEL GWF_1            PACKAGE DRN_SYS1         ON UNIT   1018 AT TIME STEP      1, STRESS PERIOD    203
 UBDSV06 SAVING              RIV IN MODEL GWF_1            PACKAGE GWF_1           CONNECTED TO MODEL GWF_1            PACKAGE RIV_SYS1         ON UNIT   1018 AT TIME STEP      1, STRESS PERIOD    203
 UBDSV06 SAVING              RIV IN MODEL GWF_1            PACKAGE GWF_1           CONNECTED TO MODEL GWF_1            PACKAGE RIV_SYS2         ON UNIT   1018 AT TIME STEP      1, STRESS PERIOD    203

 HEAD WILL BE SAVED ON UNIT 1017 AT END OF TIME STEP    1, STRESS PERIOD  203


  VOLUME BUDGET FOR ENTIRE MODEL AT END OF TIME STEP    1, STRESS PERIOD 203
  ---------------------------------------------------------------------------------------------------

     CUMULATIVE VOLUME      L**3       RATES FOR THIS TIME STEP      L**3/T          PACKAGE NAME    
     ------------------                 ------------------------                     ----------------

           IN:                                      IN:
           ---                                      ---
              STO-SS =      227434.9357                STO-SS =           0.1848     STORAGE                          
                 DRN =           0.0000                   DRN =           0.0000     DRN_SYS1                         
                 RIV =      217664.5915                   RIV =        1275.7782     RIV_SYS1                         
                 RIV =           0.0000                   RIV =           0.0000     RIV_SYS2                         
                 RCH =           0.0000                   RCH =           0.0000     RCH_MSW                          

            TOTAL IN =      445099.5272              TOTAL IN =        1275.9630

          OUT:                                     OUT:
          ----                                     ----
              STO-SS =           0.0000                STO-SS =           0.0000     STORAGE                          
                 DRN =        7392.3512                   DRN =           9.3281     DRN_SYS1                         
                 RIV =      415838.2717                   RIV =        1226.9892     RIV_SYS1                         
                 RIV =       21870.5716                   RIV =          39.6475     RIV_SYS2                         
                 RCH =           0.0000                   RCH =           0.0000     RCH_MSW                          

           TOTAL OUT =      445101.1945             TOTAL OUT =        1275.9649

            IN - OUT =          -1.6674              IN - OUT =      -1.8857E-03

 PERCENT DISCREPANCY =          -0.00     PERCENT DISCREPANCY =          -0.00




         TIME SUMMARY AT END OF TIME STEP    1 IN STRESS PERIOD  203
                    SECONDS     MINUTES      HOURS       DAYS        YEARS
                    -----------------------------------------------------------
   TIME STEP LENGTH  86400.      1440.0      24.000      1.0000     2.73785E-03
 STRESS PERIOD TIME  86400.      1440.0      24.000      1.0000     2.73785E-03
         TOTAL TIME 1.75392E+07 2.92320E+05  4872.0      203.00     0.55578    


end timestep


start timestep kper="204" kstp="1" mode="normal"

 #Stressperiod Save Options

 BEGIN READING OUTPUT CONTROL FOR STRESS PERIOD 204
      ALL TIME STEPS WILL BE SAVED
      ALL TIME STEPS WILL BE SAVED

 END READING OUTPUT CONTROL FOR STRESS PERIOD 204


 PROCESSING STORAGE PERIOD DATA
 END PROCESSING STORAGE PERIOD DATA


 STRESS PERIOD 204 IS TRANSIENT


 REUSING DRNS FROM LAST STRESS PERIOD

 REUSING RIVS FROM LAST STRESS PERIOD

 REUSING RIVS FROM LAST STRESS PERIOD

 REUSING RCHS FROM LAST STRESS PERIOD
 UBDSV06 SAVING              DRN IN MODEL GWF_1            PACKAGE GWF_1           CONNECTED TO MODEL GWF_1            PACKAGE DRN_SYS1         ON UNIT   1018 AT TIME STEP      1, STRESS PERIOD    204
 UBDSV06 SAVING              RIV IN MODEL GWF_1            PACKAGE GWF_1           CONNECTED TO MODEL GWF_1            PACKAGE RIV_SYS1         ON UNIT   1018 AT TIME STEP      1, STRESS PERIOD    204
 UBDSV06 SAVING              RIV IN MODEL GWF_1            PACKAGE GWF_1           CONNECTED TO MODEL GWF_1            PACKAGE RIV_SYS2         ON UNIT   1018 AT TIME STEP      1, STRESS PERIOD    204

 HEAD WILL BE SAVED ON UNIT 1017 AT END OF TIME STEP    1, STRESS PERIOD  204


  VOLUME BUDGET FOR ENTIRE MODEL AT END OF TIME STEP    1, STRESS PERIOD 204
  ---------------------------------------------------------------------------------------------------

     CUMULATIVE VOLUME      L**3       RATES FOR THIS TIME STEP      L**3/T          PACKAGE NAME    
     ------------------                 ------------------------                     ----------------

           IN:                                      IN:
           ---                                      ---
              STO-SS =      227435.1108                STO-SS =           0.1751     STORAGE                          
                 DRN =           0.0000                   DRN =           0.0000     DRN_SYS1                         
                 RIV =      218940.3728                   RIV =        1275.7813     RIV_SYS1                         
                 RIV =           0.0000                   RIV =           0.0000     RIV_SYS2                         
                 RCH =           0.0000                   RCH =           0.0000     RCH_MSW                          

            TOTAL IN =      446375.4836              TOTAL IN =        1275.9564

          OUT:                                     OUT:
          ----                                     ----
              STO-SS =           0.0000                STO-SS =           0.0000     STORAGE                          
                 DRN =        7401.6790                   DRN =           9.3277     DRN_SYS1                         
                 RIV =      417065.2552                   RIV =        1226.9835     RIV_SYS1                         
                 RIV =       21910.2186                   RIV =          39.6469     RIV_SYS2                         
                 RCH =           0.0000                   RCH =           0.0000     RCH_MSW                          

           TOTAL OUT =      446377.1527             TOTAL OUT =        1275.9582

            IN - OUT =          -1.6692              IN - OUT =      -1.7870E-03

 PERCENT DISCREPANCY =          -0.00     PERCENT DISCREPANCY =          -0.00




         TIME SUMMARY AT END OF TIME STEP    1 IN STRESS PERIOD  204
                    SECONDS     MINUTES      HOURS       DAYS        YEARS
                    -----------------------------------------------------------
   TIME STEP LENGTH  86400.      1440.0      24.000      1.0000     2.73785E-03
 STRESS PERIOD TIME  86400.      1440.0      24.000      1.0000     2.73785E-03
         TOTAL TIME 1.76256E+07 2.93760E+05  4896.0      204.00     0.55852    


end timestep


start timestep kper="205" kstp="1" mode="normal"

 #Stressperiod Save Options

 BEGIN READING OUTPUT CONTROL FOR STRESS PERIOD 205
      ALL TIME STEPS WILL BE SAVED
      ALL TIME STEPS WILL BE SAVED

 END READING OUTPUT CONTROL FOR STRESS PERIOD 205


 PROCESSING STORAGE PERIOD DATA
 END PROCESSING STORAGE PERIOD DATA


 STRESS PERIOD 205 IS TRANSIENT


 REUSING DRNS FROM LAST STRESS PERIOD

 REUSING RIVS FROM LAST STRESS PERIOD

 REUSING RIVS FROM LAST STRESS PERIOD

 REUSING RCHS FROM LAST STRESS PERIOD
 UBDSV06 SAVING              DRN IN MODEL GWF_1            PACKAGE GWF_1           CONNECTED TO MODEL GWF_1            PACKAGE DRN_SYS1         ON UNIT   1018 AT TIME STEP      1, STRESS PERIOD    205
 UBDSV06 SAVING              RIV IN MODEL GWF_1            PACKAGE GWF_1           CONNECTED TO MODEL GWF_1            PACKAGE RIV_SYS1         ON UNIT   1018 AT TIME STEP      1, STRESS PERIOD    205
 UBDSV06 SAVING              RIV IN MODEL GWF_1            PACKAGE GWF_1           CONNECTED TO MODEL GWF_1            PACKAGE RIV_SYS2         ON UNIT   1018 AT TIME STEP      1, STRESS PERIOD    205

 HEAD WILL BE SAVED ON UNIT 1017 AT END OF TIME STEP    1, STRESS PERIOD  205


  VOLUME BUDGET FOR ENTIRE MODEL AT END OF TIME STEP    1, STRESS PERIOD 205
  ---------------------------------------------------------------------------------------------------

     CUMULATIVE VOLUME      L**3       RATES FOR THIS TIME STEP      L**3/T          PACKAGE NAME    
     ------------------                 ------------------------                     ----------------

           IN:                                      IN:
           ---                                      ---
              STO-SS =      227435.2767                STO-SS =           0.1659     STORAGE                          
                 DRN =           0.0000                   DRN =           0.0000     DRN_SYS1                         
                 RIV =      220216.1570                   RIV =        1275.7842     RIV_SYS1                         
                 RIV =           0.0000                   RIV =           0.0000     RIV_SYS2                         
                 RCH =           0.0000                   RCH =           0.0000     RCH_MSW                          

            TOTAL IN =      447651.4338              TOTAL IN =        1275.9502

          OUT:                                     OUT:
          ----                                     ----
              STO-SS =           0.0000                STO-SS =           0.0000     STORAGE                          
                 DRN =        7411.0064                   DRN =           9.3274     DRN_SYS1                         
                 RIV =      418292.2333                   RIV =        1226.9781     RIV_SYS1                         
                 RIV =       21949.8649                   RIV =          39.6463     RIV_SYS2                         
                 RCH =           0.0000                   RCH =           0.0000     RCH_MSW                          

           TOTAL OUT =      447653.1046             TOTAL OUT =        1275.9519

            IN - OUT =          -1.6708              IN - OUT =      -1.6935E-03

 PERCENT DISCREPANCY =          -0.00     PERCENT DISCREPANCY =          -0.00




         TIME SUMMARY AT END OF TIME STEP    1 IN STRESS PERIOD  205
                    SECONDS     MINUTES      HOURS       DAYS        YEARS
                    -----------------------------------------------------------
   TIME STEP LENGTH  86400.      1440.0      24.000      1.0000     2.73785E-03
 STRESS PERIOD TIME  86400.      1440.0      24.000      1.0000     2.73785E-03
         TOTAL TIME 1.77120E+07 2.95200E+05  4920.0      205.00     0.56126    


end timestep


start timestep kper="206" kstp="1" mode="normal"

 #Stressperiod Save Options

 BEGIN READING OUTPUT CONTROL FOR STRESS PERIOD 206
      ALL TIME STEPS WILL BE SAVED
      ALL TIME STEPS WILL BE SAVED

 END READING OUTPUT CONTROL FOR STRESS PERIOD 206


 PROCESSING STORAGE PERIOD DATA
 END PROCESSING STORAGE PERIOD DATA


 STRESS PERIOD 206 IS TRANSIENT


 REUSING DRNS FROM LAST STRESS PERIOD

 REUSING RIVS FROM LAST STRESS PERIOD

 REUSING RIVS FROM LAST STRESS PERIOD

 REUSING RCHS FROM LAST STRESS PERIOD
 UBDSV06 SAVING              DRN IN MODEL GWF_1            PACKAGE GWF_1           CONNECTED TO MODEL GWF_1            PACKAGE DRN_SYS1         ON UNIT   1018 AT TIME STEP      1, STRESS PERIOD    206
 UBDSV06 SAVING              RIV IN MODEL GWF_1            PACKAGE GWF_1           CONNECTED TO MODEL GWF_1            PACKAGE RIV_SYS1         ON UNIT   1018 AT TIME STEP      1, STRESS PERIOD    206
 UBDSV06 SAVING              RIV IN MODEL GWF_1            PACKAGE GWF_1           CONNECTED TO MODEL GWF_1            PACKAGE RIV_SYS2         ON UNIT   1018 AT TIME STEP      1, STRESS PERIOD    206

 HEAD WILL BE SAVED ON UNIT 1017 AT END OF TIME STEP    1, STRESS PERIOD  206


  VOLUME BUDGET FOR ENTIRE MODEL AT END OF TIME STEP    1, STRESS PERIOD 206
  ---------------------------------------------------------------------------------------------------

     CUMULATIVE VOLUME      L**3       RATES FOR THIS TIME STEP      L**3/T          PACKAGE NAME    
     ------------------                 ------------------------                     ----------------

           IN:                                      IN:
           ---                                      ---
              STO-SS =      227435.4340                STO-SS =           0.1573     STORAGE                          
                 DRN =           0.0000                   DRN =           0.0000     DRN_SYS1                         
                 RIV =      221491.9441                   RIV =        1275.7870     RIV_SYS1                         
                 RIV =           0.0000                   RIV =           0.0000     RIV_SYS2                         
                 RCH =           0.0000                   RCH =           0.0000     RCH_MSW                          

            TOTAL IN =      448927.3781              TOTAL IN =        1275.9443

          OUT:                                     OUT:
          ----                                     ----
              STO-SS =           0.0000                STO-SS =           0.0000     STORAGE                          
                 DRN =        7420.3335                   DRN =           9.3271     DRN_SYS1                         
                 RIV =      419519.2063                   RIV =        1226.9730     RIV_SYS1                         
                 RIV =       21989.5107                   RIV =          39.6458     RIV_SYS2                         
                 RCH =           0.0000                   RCH =           0.0000     RCH_MSW                          

           TOTAL OUT =      448929.0505             TOTAL OUT =        1275.9459

            IN - OUT =          -1.6724              IN - OUT =      -1.6049E-03

 PERCENT DISCREPANCY =          -0.00     PERCENT DISCREPANCY =          -0.00




         TIME SUMMARY AT END OF TIME STEP    1 IN STRESS PERIOD  206
                    SECONDS     MINUTES      HOURS       DAYS        YEARS
                    -----------------------------------------------------------
   TIME STEP LENGTH  86400.      1440.0      24.000      1.0000     2.73785E-03
 STRESS PERIOD TIME  86400.      1440.0      24.000      1.0000     2.73785E-03
         TOTAL TIME 1.77984E+07 2.96640E+05  4944.0      206.00     0.56400    


end timestep


start timestep kper="207" kstp="1" mode="normal"

 #Stressperiod Save Options

 BEGIN READING OUTPUT CONTROL FOR STRESS PERIOD 207
      ALL TIME STEPS WILL BE SAVED
      ALL TIME STEPS WILL BE SAVED

 END READING OUTPUT CONTROL FOR STRESS PERIOD 207


 PROCESSING STORAGE PERIOD DATA
 END PROCESSING STORAGE PERIOD DATA


 STRESS PERIOD 207 IS TRANSIENT


 REUSING DRNS FROM LAST STRESS PERIOD

 REUSING RIVS FROM LAST STRESS PERIOD

 REUSING RIVS FROM LAST STRESS PERIOD

 REUSING RCHS FROM LAST STRESS PERIOD
 UBDSV06 SAVING              DRN IN MODEL GWF_1            PACKAGE GWF_1           CONNECTED TO MODEL GWF_1            PACKAGE DRN_SYS1         ON UNIT   1018 AT TIME STEP      1, STRESS PERIOD    207
 UBDSV06 SAVING              RIV IN MODEL GWF_1            PACKAGE GWF_1           CONNECTED TO MODEL GWF_1            PACKAGE RIV_SYS1         ON UNIT   1018 AT TIME STEP      1, STRESS PERIOD    207
 UBDSV06 SAVING              RIV IN MODEL GWF_1            PACKAGE GWF_1           CONNECTED TO MODEL GWF_1            PACKAGE RIV_SYS2         ON UNIT   1018 AT TIME STEP      1, STRESS PERIOD    207

 HEAD WILL BE SAVED ON UNIT 1017 AT END OF TIME STEP    1, STRESS PERIOD  207


  VOLUME BUDGET FOR ENTIRE MODEL AT END OF TIME STEP    1, STRESS PERIOD 207
  ---------------------------------------------------------------------------------------------------

     CUMULATIVE VOLUME      L**3       RATES FOR THIS TIME STEP      L**3/T          PACKAGE NAME    
     ------------------                 ------------------------                     ----------------

           IN:                                      IN:
           ---                                      ---
              STO-SS =      227435.5831                STO-SS =           0.1491     STORAGE                          
                 DRN =           0.0000                   DRN =           0.0000     DRN_SYS1                         
                 RIV =      222767.7337                   RIV =        1275.7897     RIV_SYS1                         
                 RIV =           0.0000                   RIV =           0.0000     RIV_SYS2                         
                 RCH =           0.0000                   RCH =           0.0000     RCH_MSW                          

            TOTAL IN =      450203.3168              TOTAL IN =        1275.9387

          OUT:                                     OUT:
          ----                                     ----
              STO-SS =           0.0000                STO-SS =           0.0000     STORAGE                          
                 DRN =        7429.6604                   DRN =           9.3269     DRN_SYS1                         
                 RIV =      420746.1744                   RIV =        1226.9681     RIV_SYS1                         
                 RIV =       22029.1560                   RIV =          39.6453     RIV_SYS2                         
                 RCH =           0.0000                   RCH =           0.0000     RCH_MSW                          

           TOTAL OUT =      450204.9907             TOTAL OUT =        1275.9402

            IN - OUT =          -1.6740              IN - OUT =      -1.5210E-03

 PERCENT DISCREPANCY =          -0.00     PERCENT DISCREPANCY =          -0.00




         TIME SUMMARY AT END OF TIME STEP    1 IN STRESS PERIOD  207
                    SECONDS     MINUTES      HOURS       DAYS        YEARS
                    -----------------------------------------------------------
   TIME STEP LENGTH  86400.      1440.0      24.000      1.0000     2.73785E-03
 STRESS PERIOD TIME  86400.      1440.0      24.000      1.0000     2.73785E-03
         TOTAL TIME 1.78848E+07 2.98080E+05  4968.0      207.00     0.56674    


end timestep


start timestep kper="208" kstp="1" mode="normal"

 #Stressperiod Save Options

 BEGIN READING OUTPUT CONTROL FOR STRESS PERIOD 208
      ALL TIME STEPS WILL BE SAVED
      ALL TIME STEPS WILL BE SAVED

 END READING OUTPUT CONTROL FOR STRESS PERIOD 208


 PROCESSING STORAGE PERIOD DATA
 END PROCESSING STORAGE PERIOD DATA


 STRESS PERIOD 208 IS TRANSIENT


 REUSING DRNS FROM LAST STRESS PERIOD

 REUSING RIVS FROM LAST STRESS PERIOD

 REUSING RIVS FROM LAST STRESS PERIOD

 REUSING RCHS FROM LAST STRESS PERIOD
 UBDSV06 SAVING              DRN IN MODEL GWF_1            PACKAGE GWF_1           CONNECTED TO MODEL GWF_1            PACKAGE DRN_SYS1         ON UNIT   1018 AT TIME STEP      1, STRESS PERIOD    208
 UBDSV06 SAVING              RIV IN MODEL GWF_1            PACKAGE GWF_1           CONNECTED TO MODEL GWF_1            PACKAGE RIV_SYS1         ON UNIT   1018 AT TIME STEP      1, STRESS PERIOD    208
 UBDSV06 SAVING              RIV IN MODEL GWF_1            PACKAGE GWF_1           CONNECTED TO MODEL GWF_1            PACKAGE RIV_SYS2         ON UNIT   1018 AT TIME STEP      1, STRESS PERIOD    208

 HEAD WILL BE SAVED ON UNIT 1017 AT END OF TIME STEP    1, STRESS PERIOD  208


  VOLUME BUDGET FOR ENTIRE MODEL AT END OF TIME STEP    1, STRESS PERIOD 208
  ---------------------------------------------------------------------------------------------------

     CUMULATIVE VOLUME      L**3       RATES FOR THIS TIME STEP      L**3/T          PACKAGE NAME    
     ------------------                 ------------------------                     ----------------

           IN:                                      IN:
           ---                                      ---
              STO-SS =      227435.7243                STO-SS =           0.1413     STORAGE                          
                 DRN =           0.0000                   DRN =           0.0000     DRN_SYS1                         
                 RIV =      224043.5259                   RIV =        1275.7922     RIV_SYS1                         
                 RIV =           0.0000                   RIV =           0.0000     RIV_SYS2                         
                 RCH =           0.0000                   RCH =           0.0000     RCH_MSW                          

            TOTAL IN =      451479.2502              TOTAL IN =        1275.9334

          OUT:                                     OUT:
          ----                                     ----
              STO-SS =           0.0000                STO-SS =           0.0000     STORAGE                          
                 DRN =        7438.9870                   DRN =           9.3266     DRN_SYS1                         
                 RIV =      421973.1378                   RIV =        1226.9635     RIV_SYS1                         
                 RIV =       22068.8007                   RIV =          39.6448     RIV_SYS2                         
                 RCH =           0.0000                   RCH =           0.0000     RCH_MSW                          

           TOTAL OUT =      451480.9256             TOTAL OUT =        1275.9349

            IN - OUT =          -1.6754              IN - OUT =      -1.4414E-03

 PERCENT DISCREPANCY =          -0.00     PERCENT DISCREPANCY =          -0.00




         TIME SUMMARY AT END OF TIME STEP    1 IN STRESS PERIOD  208
                    SECONDS     MINUTES      HOURS       DAYS        YEARS
                    -----------------------------------------------------------
   TIME STEP LENGTH  86400.      1440.0      24.000      1.0000     2.73785E-03
 STRESS PERIOD TIME  86400.      1440.0      24.000      1.0000     2.73785E-03
         TOTAL TIME 1.79712E+07 2.99520E+05  4992.0      208.00     0.56947    


end timestep


start timestep kper="209" kstp="1" mode="normal"

 #Stressperiod Save Options

 BEGIN READING OUTPUT CONTROL FOR STRESS PERIOD 209
      ALL TIME STEPS WILL BE SAVED
      ALL TIME STEPS WILL BE SAVED

 END READING OUTPUT CONTROL FOR STRESS PERIOD 209


 PROCESSING STORAGE PERIOD DATA
 END PROCESSING STORAGE PERIOD DATA


 STRESS PERIOD 209 IS TRANSIENT


 REUSING DRNS FROM LAST STRESS PERIOD

 REUSING RIVS FROM LAST STRESS PERIOD

 REUSING RIVS FROM LAST STRESS PERIOD

 REUSING RCHS FROM LAST STRESS PERIOD
 UBDSV06 SAVING              DRN IN MODEL GWF_1            PACKAGE GWF_1           CONNECTED TO MODEL GWF_1            PACKAGE DRN_SYS1         ON UNIT   1018 AT TIME STEP      1, STRESS PERIOD    209
 UBDSV06 SAVING              RIV IN MODEL GWF_1            PACKAGE GWF_1           CONNECTED TO MODEL GWF_1            PACKAGE RIV_SYS1         ON UNIT   1018 AT TIME STEP      1, STRESS PERIOD    209
 UBDSV06 SAVING              RIV IN MODEL GWF_1            PACKAGE GWF_1           CONNECTED TO MODEL GWF_1            PACKAGE RIV_SYS2         ON UNIT   1018 AT TIME STEP      1, STRESS PERIOD    209

 HEAD WILL BE SAVED ON UNIT 1017 AT END OF TIME STEP    1, STRESS PERIOD  209


  VOLUME BUDGET FOR ENTIRE MODEL AT END OF TIME STEP    1, STRESS PERIOD 209
  ---------------------------------------------------------------------------------------------------

     CUMULATIVE VOLUME      L**3       RATES FOR THIS TIME STEP      L**3/T          PACKAGE NAME    
     ------------------                 ------------------------                     ----------------

           IN:                                      IN:
           ---                                      ---
              STO-SS =      227435.8582                STO-SS =           0.1339     STORAGE                          
                 DRN =           0.0000                   DRN =           0.0000     DRN_SYS1                         
                 RIV =      225319.3204                   RIV =        1275.7945     RIV_SYS1                         
                 RIV =           0.0000                   RIV =           0.0000     RIV_SYS2                         
                 RCH =           0.0000                   RCH =           0.0000     RCH_MSW                          

            TOTAL IN =      452755.1786              TOTAL IN =        1275.9284

          OUT:                                     OUT:
          ----                                     ----
              STO-SS =           0.0000                STO-SS =           0.0000     STORAGE                          
                 DRN =        7448.3134                   DRN =           9.3264     DRN_SYS1                         
                 RIV =      423200.0970                   RIV =        1226.9591     RIV_SYS1                         
                 RIV =       22108.4450                   RIV =          39.6443     RIV_SYS2                         
                 RCH =           0.0000                   RCH =           0.0000     RCH_MSW                          

           TOTAL OUT =      452756.8554             TOTAL OUT =        1275.9298

            IN - OUT =          -1.6768              IN - OUT =      -1.3660E-03

 PERCENT DISCREPANCY =          -0.00     PERCENT DISCREPANCY =          -0.00




         TIME SUMMARY AT END OF TIME STEP    1 IN STRESS PERIOD  209
                    SECONDS     MINUTES      HOURS       DAYS        YEARS
                    -----------------------------------------------------------
   TIME STEP LENGTH  86400.      1440.0      24.000      1.0000     2.73785E-03
 STRESS PERIOD TIME  86400.      1440.0      24.000      1.0000     2.73785E-03
         TOTAL TIME 1.80576E+07 3.00960E+05  5016.0      209.00     0.57221    


end timestep


start timestep kper="210" kstp="1" mode="normal"

 #Stressperiod Save Options

 BEGIN READING OUTPUT CONTROL FOR STRESS PERIOD 210
      ALL TIME STEPS WILL BE SAVED
      ALL TIME STEPS WILL BE SAVED

 END READING OUTPUT CONTROL FOR STRESS PERIOD 210


 PROCESSING STORAGE PERIOD DATA
 END PROCESSING STORAGE PERIOD DATA


 STRESS PERIOD 210 IS TRANSIENT


 REUSING DRNS FROM LAST STRESS PERIOD

 REUSING RIVS FROM LAST STRESS PERIOD

 REUSING RIVS FROM LAST STRESS PERIOD

 REUSING RCHS FROM LAST STRESS PERIOD
 UBDSV06 SAVING              DRN IN MODEL GWF_1            PACKAGE GWF_1           CONNECTED TO MODEL GWF_1            PACKAGE DRN_SYS1         ON UNIT   1018 AT TIME STEP      1, STRESS PERIOD    210
 UBDSV06 SAVING              RIV IN MODEL GWF_1            PACKAGE GWF_1           CONNECTED TO MODEL GWF_1            PACKAGE RIV_SYS1         ON UNIT   1018 AT TIME STEP      1, STRESS PERIOD    210
 UBDSV06 SAVING              RIV IN MODEL GWF_1            PACKAGE GWF_1           CONNECTED TO MODEL GWF_1            PACKAGE RIV_SYS2         ON UNIT   1018 AT TIME STEP      1, STRESS PERIOD    210

 HEAD WILL BE SAVED ON UNIT 1017 AT END OF TIME STEP    1, STRESS PERIOD  210


  VOLUME BUDGET FOR ENTIRE MODEL AT END OF TIME STEP    1, STRESS PERIOD 210
  ---------------------------------------------------------------------------------------------------

     CUMULATIVE VOLUME      L**3       RATES FOR THIS TIME STEP      L**3/T          PACKAGE NAME    
     ------------------                 ------------------------                     ----------------

           IN:                                      IN:
           ---                                      ---
              STO-SS =      227435.9851                STO-SS =           0.1269     STORAGE                          
                 DRN =           0.0000                   DRN =           0.0000     DRN_SYS1                         
                 RIV =      226595.1172                   RIV =        1275.7968     RIV_SYS1                         
                 RIV =           0.0000                   RIV =           0.0000     RIV_SYS2                         
                 RCH =           0.0000                   RCH =           0.0000     RCH_MSW                          

            TOTAL IN =      454031.1022              TOTAL IN =        1275.9237

          OUT:                                     OUT:
          ----                                     ----
              STO-SS =           0.0000                STO-SS =           0.0000     STORAGE                          
                 DRN =        7457.6395                   DRN =           9.3261     DRN_SYS1                         
                 RIV =      424427.0519                   RIV =        1226.9550     RIV_SYS1                         
                 RIV =       22148.0889                   RIV =          39.6438     RIV_SYS2                         
                 RCH =           0.0000                   RCH =           0.0000     RCH_MSW                          

           TOTAL OUT =      454032.7803             TOTAL OUT =        1275.9249

            IN - OUT =          -1.6781              IN - OUT =      -1.2945E-03

 PERCENT DISCREPANCY =          -0.00     PERCENT DISCREPANCY =          -0.00




         TIME SUMMARY AT END OF TIME STEP    1 IN STRESS PERIOD  210
                    SECONDS     MINUTES      HOURS       DAYS        YEARS
                    -----------------------------------------------------------
   TIME STEP LENGTH  86400.      1440.0      24.000      1.0000     2.73785E-03
 STRESS PERIOD TIME  86400.      1440.0      24.000      1.0000     2.73785E-03
         TOTAL TIME 1.81440E+07 3.02400E+05  5040.0      210.00     0.57495    


end timestep


start timestep kper="211" kstp="1" mode="normal"

 #Stressperiod Save Options

 BEGIN READING OUTPUT CONTROL FOR STRESS PERIOD 211
      ALL TIME STEPS WILL BE SAVED
      ALL TIME STEPS WILL BE SAVED

 END READING OUTPUT CONTROL FOR STRESS PERIOD 211


 PROCESSING STORAGE PERIOD DATA
 END PROCESSING STORAGE PERIOD DATA


 STRESS PERIOD 211 IS TRANSIENT


 REUSING DRNS FROM LAST STRESS PERIOD

 REUSING RIVS FROM LAST STRESS PERIOD

 REUSING RIVS FROM LAST STRESS PERIOD

 REUSING RCHS FROM LAST STRESS PERIOD
 UBDSV06 SAVING              DRN IN MODEL GWF_1            PACKAGE GWF_1           CONNECTED TO MODEL GWF_1            PACKAGE DRN_SYS1         ON UNIT   1018 AT TIME STEP      1, STRESS PERIOD    211
 UBDSV06 SAVING              RIV IN MODEL GWF_1            PACKAGE GWF_1           CONNECTED TO MODEL GWF_1            PACKAGE RIV_SYS1         ON UNIT   1018 AT TIME STEP      1, STRESS PERIOD    211
 UBDSV06 SAVING              RIV IN MODEL GWF_1            PACKAGE GWF_1           CONNECTED TO MODEL GWF_1            PACKAGE RIV_SYS2         ON UNIT   1018 AT TIME STEP      1, STRESS PERIOD    211

 HEAD WILL BE SAVED ON UNIT 1017 AT END OF TIME STEP    1, STRESS PERIOD  211


  VOLUME BUDGET FOR ENTIRE MODEL AT END OF TIME STEP    1, STRESS PERIOD 211
  ---------------------------------------------------------------------------------------------------

     CUMULATIVE VOLUME      L**3       RATES FOR THIS TIME STEP      L**3/T          PACKAGE NAME    
     ------------------                 ------------------------                     ----------------

           IN:                                      IN:
           ---                                      ---
              STO-SS =      227436.1053                STO-SS =           0.1202     STORAGE                          
                 DRN =           0.0000                   DRN =           0.0000     DRN_SYS1                         
                 RIV =      227870.9161                   RIV =        1275.7989     RIV_SYS1                         
                 RIV =           0.0000                   RIV =           0.0000     RIV_SYS2                         
                 RCH =           0.0000                   RCH =           0.0000     RCH_MSW                          

            TOTAL IN =      455307.0214              TOTAL IN =        1275.9191

          OUT:                                     OUT:
          ----                                     ----
              STO-SS =           0.0000                STO-SS =           0.0000     STORAGE                          
                 DRN =        7466.9654                   DRN =           9.3259     DRN_SYS1                         
                 RIV =      425654.0030                   RIV =        1226.9510     RIV_SYS1                         
                 RIV =       22187.7323                   RIV =          39.6434     RIV_SYS2                         
                 RCH =           0.0000                   RCH =           0.0000     RCH_MSW                          

           TOTAL OUT =      455308.7007             TOTAL OUT =        1275.9204

            IN - OUT =          -1.6793              IN - OUT =      -1.2268E-03

 PERCENT DISCREPANCY =          -0.00     PERCENT DISCREPANCY =          -0.00




         TIME SUMMARY AT END OF TIME STEP    1 IN STRESS PERIOD  211
                    SECONDS     MINUTES      HOURS       DAYS        YEARS
                    -----------------------------------------------------------
   TIME STEP LENGTH  86400.      1440.0      24.000      1.0000     2.73785E-03
 STRESS PERIOD TIME  86400.      1440.0      24.000      1.0000     2.73785E-03
         TOTAL TIME 1.82304E+07 3.03840E+05  5064.0      211.00     0.57769    


end timestep


start timestep kper="212" kstp="1" mode="normal"

 #Stressperiod Save Options

 BEGIN READING OUTPUT CONTROL FOR STRESS PERIOD 212
      ALL TIME STEPS WILL BE SAVED
      ALL TIME STEPS WILL BE SAVED

 END READING OUTPUT CONTROL FOR STRESS PERIOD 212


 PROCESSING STORAGE PERIOD DATA
 END PROCESSING STORAGE PERIOD DATA


 STRESS PERIOD 212 IS TRANSIENT


 REUSING DRNS FROM LAST STRESS PERIOD

 REUSING RIVS FROM LAST STRESS PERIOD

 REUSING RIVS FROM LAST STRESS PERIOD

 REUSING RCHS FROM LAST STRESS PERIOD
 UBDSV06 SAVING              DRN IN MODEL GWF_1            PACKAGE GWF_1           CONNECTED TO MODEL GWF_1            PACKAGE DRN_SYS1         ON UNIT   1018 AT TIME STEP      1, STRESS PERIOD    212
 UBDSV06 SAVING              RIV IN MODEL GWF_1            PACKAGE GWF_1           CONNECTED TO MODEL GWF_1            PACKAGE RIV_SYS1         ON UNIT   1018 AT TIME STEP      1, STRESS PERIOD    212
 UBDSV06 SAVING              RIV IN MODEL GWF_1            PACKAGE GWF_1           CONNECTED TO MODEL GWF_1            PACKAGE RIV_SYS2         ON UNIT   1018 AT TIME STEP      1, STRESS PERIOD    212

 HEAD WILL BE SAVED ON UNIT 1017 AT END OF TIME STEP    1, STRESS PERIOD  212


  VOLUME BUDGET FOR ENTIRE MODEL AT END OF TIME STEP    1, STRESS PERIOD 212
  ---------------------------------------------------------------------------------------------------

     CUMULATIVE VOLUME      L**3       RATES FOR THIS TIME STEP      L**3/T          PACKAGE NAME    
     ------------------                 ------------------------                     ----------------

           IN:                                      IN:
           ---                                      ---
              STO-SS =      227436.2193                STO-SS =           0.1140     STORAGE                          
                 DRN =           0.0000                   DRN =           0.0000     DRN_SYS1                         
                 RIV =      229146.7170                   RIV =        1275.8009     RIV_SYS1                         
                 RIV =           0.0000                   RIV =           0.0000     RIV_SYS2                         
                 RCH =           0.0000                   RCH =           0.0000     RCH_MSW                          

            TOTAL IN =      456582.9363              TOTAL IN =        1275.9149

          OUT:                                     OUT:
          ----                                     ----
              STO-SS =           0.0000                STO-SS =           0.0000     STORAGE                          
                 DRN =        7476.2911                   DRN =           9.3257     DRN_SYS1                         
                 RIV =      426880.9503                   RIV =        1226.9473     RIV_SYS1                         
                 RIV =       22227.3753                   RIV =          39.6430     RIV_SYS2                         
                 RCH =           0.0000                   RCH =           0.0000     RCH_MSW                          

           TOTAL OUT =      456584.6167             TOTAL OUT =        1275.9160

            IN - OUT =          -1.6805              IN - OUT =      -1.1627E-03

 PERCENT DISCREPANCY =          -0.00     PERCENT DISCREPANCY =          -0.00




         TIME SUMMARY AT END OF TIME STEP    1 IN STRESS PERIOD  212
                    SECONDS     MINUTES      HOURS       DAYS        YEARS
                    -----------------------------------------------------------
   TIME STEP LENGTH  86400.      1440.0      24.000      1.0000     2.73785E-03
 STRESS PERIOD TIME  86400.      1440.0      24.000      1.0000     2.73785E-03
         TOTAL TIME 1.83168E+07 3.05280E+05  5088.0      212.00     0.58042    


end timestep


start timestep kper="213" kstp="1" mode="normal"

 #Stressperiod Save Options

 BEGIN READING OUTPUT CONTROL FOR STRESS PERIOD 213
      ALL TIME STEPS WILL BE SAVED
      ALL TIME STEPS WILL BE SAVED

 END READING OUTPUT CONTROL FOR STRESS PERIOD 213


 PROCESSING STORAGE PERIOD DATA
 END PROCESSING STORAGE PERIOD DATA


 STRESS PERIOD 213 IS TRANSIENT


 REUSING DRNS FROM LAST STRESS PERIOD

 REUSING RIVS FROM LAST STRESS PERIOD

 REUSING RIVS FROM LAST STRESS PERIOD

 REUSING RCHS FROM LAST STRESS PERIOD
 UBDSV06 SAVING              DRN IN MODEL GWF_1            PACKAGE GWF_1           CONNECTED TO MODEL GWF_1            PACKAGE DRN_SYS1         ON UNIT   1018 AT TIME STEP      1, STRESS PERIOD    213
 UBDSV06 SAVING              RIV IN MODEL GWF_1            PACKAGE GWF_1           CONNECTED TO MODEL GWF_1            PACKAGE RIV_SYS1         ON UNIT   1018 AT TIME STEP      1, STRESS PERIOD    213
 UBDSV06 SAVING              RIV IN MODEL GWF_1            PACKAGE GWF_1           CONNECTED TO MODEL GWF_1            PACKAGE RIV_SYS2         ON UNIT   1018 AT TIME STEP      1, STRESS PERIOD    213

 HEAD WILL BE SAVED ON UNIT 1017 AT END OF TIME STEP    1, STRESS PERIOD  213


  VOLUME BUDGET FOR ENTIRE MODEL AT END OF TIME STEP    1, STRESS PERIOD 213
  ---------------------------------------------------------------------------------------------------

     CUMULATIVE VOLUME      L**3       RATES FOR THIS TIME STEP      L**3/T          PACKAGE NAME    
     ------------------                 ------------------------                     ----------------

           IN:                                      IN:
           ---                                      ---
              STO-SS =      227436.3273                STO-SS =           0.1080     STORAGE                          
                 DRN =           0.0000                   DRN =           0.0000     DRN_SYS1                         
                 RIV =      230422.5198                   RIV =        1275.8028     RIV_SYS1                         
                 RIV =           0.0000                   RIV =           0.0000     RIV_SYS2                         
                 RCH =           0.0000                   RCH =           0.0000     RCH_MSW                          

            TOTAL IN =      457858.8471              TOTAL IN =        1275.9108

          OUT:                                     OUT:
          ----                                     ----
              STO-SS =           0.0000                STO-SS =           0.0000     STORAGE                          
                 DRN =        7485.6166                   DRN =           9.3255     DRN_SYS1                         
                 RIV =      428107.8941                   RIV =        1226.9438     RIV_SYS1                         
                 RIV =       22267.0180                   RIV =          39.6426     RIV_SYS2                         
                 RCH =           0.0000                   RCH =           0.0000     RCH_MSW                          

           TOTAL OUT =      457860.5287             TOTAL OUT =        1275.9119

            IN - OUT =          -1.6816              IN - OUT =      -1.1018E-03

 PERCENT DISCREPANCY =          -0.00     PERCENT DISCREPANCY =          -0.00




         TIME SUMMARY AT END OF TIME STEP    1 IN STRESS PERIOD  213
                    SECONDS     MINUTES      HOURS       DAYS        YEARS
                    -----------------------------------------------------------
   TIME STEP LENGTH  86400.      1440.0      24.000      1.0000     2.73785E-03
 STRESS PERIOD TIME  86400.      1440.0      24.000      1.0000     2.73785E-03
         TOTAL TIME 1.84032E+07 3.06720E+05  5112.0      213.00     0.58316    


end timestep


start timestep kper="214" kstp="1" mode="normal"

 #Stressperiod Save Options

 BEGIN READING OUTPUT CONTROL FOR STRESS PERIOD 214
      ALL TIME STEPS WILL BE SAVED
      ALL TIME STEPS WILL BE SAVED

 END READING OUTPUT CONTROL FOR STRESS PERIOD 214


 PROCESSING STORAGE PERIOD DATA
 END PROCESSING STORAGE PERIOD DATA


 STRESS PERIOD 214 IS TRANSIENT


 REUSING DRNS FROM LAST STRESS PERIOD

 REUSING RIVS FROM LAST STRESS PERIOD

 REUSING RIVS FROM LAST STRESS PERIOD

 REUSING RCHS FROM LAST STRESS PERIOD
 UBDSV06 SAVING              DRN IN MODEL GWF_1            PACKAGE GWF_1           CONNECTED TO MODEL GWF_1            PACKAGE DRN_SYS1         ON UNIT   1018 AT TIME STEP      1, STRESS PERIOD    214
 UBDSV06 SAVING              RIV IN MODEL GWF_1            PACKAGE GWF_1           CONNECTED TO MODEL GWF_1            PACKAGE RIV_SYS1         ON UNIT   1018 AT TIME STEP      1, STRESS PERIOD    214
 UBDSV06 SAVING              RIV IN MODEL GWF_1            PACKAGE GWF_1           CONNECTED TO MODEL GWF_1            PACKAGE RIV_SYS2         ON UNIT   1018 AT TIME STEP      1, STRESS PERIOD    214

 HEAD WILL BE SAVED ON UNIT 1017 AT END OF TIME STEP    1, STRESS PERIOD  214


  VOLUME BUDGET FOR ENTIRE MODEL AT END OF TIME STEP    1, STRESS PERIOD 214
  ---------------------------------------------------------------------------------------------------

     CUMULATIVE VOLUME      L**3       RATES FOR THIS TIME STEP      L**3/T          PACKAGE NAME    
     ------------------                 ------------------------                     ----------------

           IN:                                      IN:
           ---                                      ---
              STO-SS =      227436.4296                STO-SS =           0.1024     STORAGE                          
                 DRN =           0.0000                   DRN =           0.0000     DRN_SYS1                         
                 RIV =      231698.3245                   RIV =        1275.8046     RIV_SYS1                         
                 RIV =           0.0000                   RIV =           0.0000     RIV_SYS2                         
                 RCH =           0.0000                   RCH =           0.0000     RCH_MSW                          

            TOTAL IN =      459134.7541              TOTAL IN =        1275.9070

          OUT:                                     OUT:
          ----                                     ----
              STO-SS =           0.0000                STO-SS =           0.0000     STORAGE                          
                 DRN =        7494.9420                   DRN =           9.3253     DRN_SYS1                         
                 RIV =      429334.8345                   RIV =        1226.9404     RIV_SYS1                         
                 RIV =       22306.6602                   RIV =          39.6423     RIV_SYS2                         
                 RCH =           0.0000                   RCH =           0.0000     RCH_MSW                          

           TOTAL OUT =      459136.4367             TOTAL OUT =        1275.9080

            IN - OUT =          -1.6826              IN - OUT =      -1.0442E-03

 PERCENT DISCREPANCY =          -0.00     PERCENT DISCREPANCY =          -0.00




         TIME SUMMARY AT END OF TIME STEP    1 IN STRESS PERIOD  214
                    SECONDS     MINUTES      HOURS       DAYS        YEARS
                    -----------------------------------------------------------
   TIME STEP LENGTH  86400.      1440.0      24.000      1.0000     2.73785E-03
 STRESS PERIOD TIME  86400.      1440.0      24.000      1.0000     2.73785E-03
         TOTAL TIME 1.84896E+07 3.08160E+05  5136.0      214.00     0.58590    


end timestep


start timestep kper="215" kstp="1" mode="normal"

 #Stressperiod Save Options

 BEGIN READING OUTPUT CONTROL FOR STRESS PERIOD 215
      ALL TIME STEPS WILL BE SAVED
      ALL TIME STEPS WILL BE SAVED

 END READING OUTPUT CONTROL FOR STRESS PERIOD 215


 PROCESSING STORAGE PERIOD DATA
 END PROCESSING STORAGE PERIOD DATA


 STRESS PERIOD 215 IS TRANSIENT


 REUSING DRNS FROM LAST STRESS PERIOD

 REUSING RIVS FROM LAST STRESS PERIOD

 REUSING RIVS FROM LAST STRESS PERIOD

 REUSING RCHS FROM LAST STRESS PERIOD
 UBDSV06 SAVING              DRN IN MODEL GWF_1            PACKAGE GWF_1           CONNECTED TO MODEL GWF_1            PACKAGE DRN_SYS1         ON UNIT   1018 AT TIME STEP      1, STRESS PERIOD    215
 UBDSV06 SAVING              RIV IN MODEL GWF_1            PACKAGE GWF_1           CONNECTED TO MODEL GWF_1            PACKAGE RIV_SYS1         ON UNIT   1018 AT TIME STEP      1, STRESS PERIOD    215
 UBDSV06 SAVING              RIV IN MODEL GWF_1            PACKAGE GWF_1           CONNECTED TO MODEL GWF_1            PACKAGE RIV_SYS2         ON UNIT   1018 AT TIME STEP      1, STRESS PERIOD    215

 HEAD WILL BE SAVED ON UNIT 1017 AT END OF TIME STEP    1, STRESS PERIOD  215


  VOLUME BUDGET FOR ENTIRE MODEL AT END OF TIME STEP    1, STRESS PERIOD 215
  ---------------------------------------------------------------------------------------------------

     CUMULATIVE VOLUME      L**3       RATES FOR THIS TIME STEP      L**3/T          PACKAGE NAME    
     ------------------                 ------------------------                     ----------------

           IN:                                      IN:
           ---                                      ---
              STO-SS =      227436.5266                STO-SS =       9.7008E-02     STORAGE                          
                 DRN =           0.0000                   DRN =           0.0000     DRN_SYS1                         
                 RIV =      232974.1308                   RIV =        1275.8064     RIV_SYS1                         
                 RIV =           0.0000                   RIV =           0.0000     RIV_SYS2                         
                 RCH =           0.0000                   RCH =           0.0000     RCH_MSW                          

            TOTAL IN =      460410.6575              TOTAL IN =        1275.9034

          OUT:                                     OUT:
          ----                                     ----
              STO-SS =           0.0000                STO-SS =           0.0000     STORAGE                          
                 DRN =        7504.2671                   DRN =           9.3251     DRN_SYS1                         
                 RIV =      430561.7718                   RIV =        1226.9373     RIV_SYS1                         
                 RIV =       22346.3022                   RIV =          39.6419     RIV_SYS2                         
                 RCH =           0.0000                   RCH =           0.0000     RCH_MSW                          

           TOTAL OUT =      460412.3411             TOTAL OUT =        1275.9044

            IN - OUT =          -1.6836              IN - OUT =      -9.8959E-04

 PERCENT DISCREPANCY =          -0.00     PERCENT DISCREPANCY =          -0.00




         TIME SUMMARY AT END OF TIME STEP    1 IN STRESS PERIOD  215
                    SECONDS     MINUTES      HOURS       DAYS        YEARS
                    -----------------------------------------------------------
   TIME STEP LENGTH  86400.      1440.0      24.000      1.0000     2.73785E-03
 STRESS PERIOD TIME  86400.      1440.0      24.000      1.0000     2.73785E-03
         TOTAL TIME 1.85760E+07 3.09600E+05  5160.0      215.00     0.58864    


end timestep


start timestep kper="216" kstp="1" mode="normal"

 #Stressperiod Save Options

 BEGIN READING OUTPUT CONTROL FOR STRESS PERIOD 216
      ALL TIME STEPS WILL BE SAVED
      ALL TIME STEPS WILL BE SAVED

 END READING OUTPUT CONTROL FOR STRESS PERIOD 216


 PROCESSING STORAGE PERIOD DATA
 END PROCESSING STORAGE PERIOD DATA


 STRESS PERIOD 216 IS TRANSIENT


 REUSING DRNS FROM LAST STRESS PERIOD

 REUSING RIVS FROM LAST STRESS PERIOD

 REUSING RIVS FROM LAST STRESS PERIOD

 REUSING RCHS FROM LAST STRESS PERIOD
 UBDSV06 SAVING              DRN IN MODEL GWF_1            PACKAGE GWF_1           CONNECTED TO MODEL GWF_1            PACKAGE DRN_SYS1         ON UNIT   1018 AT TIME STEP      1, STRESS PERIOD    216
 UBDSV06 SAVING              RIV IN MODEL GWF_1            PACKAGE GWF_1           CONNECTED TO MODEL GWF_1            PACKAGE RIV_SYS1         ON UNIT   1018 AT TIME STEP      1, STRESS PERIOD    216
 UBDSV06 SAVING              RIV IN MODEL GWF_1            PACKAGE GWF_1           CONNECTED TO MODEL GWF_1            PACKAGE RIV_SYS2         ON UNIT   1018 AT TIME STEP      1, STRESS PERIOD    216

 HEAD WILL BE SAVED ON UNIT 1017 AT END OF TIME STEP    1, STRESS PERIOD  216


  VOLUME BUDGET FOR ENTIRE MODEL AT END OF TIME STEP    1, STRESS PERIOD 216
  ---------------------------------------------------------------------------------------------------

     CUMULATIVE VOLUME      L**3       RATES FOR THIS TIME STEP      L**3/T          PACKAGE NAME    
     ------------------                 ------------------------                     ----------------

           IN:                                      IN:
           ---                                      ---
              STO-SS =      227436.6186                STO-SS =       9.1937E-02     STORAGE                          
                 DRN =           0.0000                   DRN =           0.0000     DRN_SYS1                         
                 RIV =      234249.9388                   RIV =        1275.8080     RIV_SYS1                         
                 RIV =           0.0000                   RIV =           0.0000     RIV_SYS2                         
                 RCH =           0.0000                   RCH =           0.0000     RCH_MSW                          

            TOTAL IN =      461686.5574              TOTAL IN =        1275.8999

          OUT:                                     OUT:
          ----                                     ----
              STO-SS =           0.0000                STO-SS =           0.0000     STORAGE                          
                 DRN =        7513.5921                   DRN =           9.3250     DRN_SYS1                         
                 RIV =      431788.7061                   RIV =        1226.9343     RIV_SYS1                         
                 RIV =       22385.9438                   RIV =          39.6416     RIV_SYS2                         
                 RCH =           0.0000                   RCH =           0.0000     RCH_MSW                          

           TOTAL OUT =      461688.2419             TOTAL OUT =        1275.9009

            IN - OUT =          -1.6845              IN - OUT =      -9.3783E-04

 PERCENT DISCREPANCY =          -0.00     PERCENT DISCREPANCY =          -0.00




         TIME SUMMARY AT END OF TIME STEP    1 IN STRESS PERIOD  216
                    SECONDS     MINUTES      HOURS       DAYS        YEARS
                    -----------------------------------------------------------
   TIME STEP LENGTH  86400.      1440.0      24.000      1.0000     2.73785E-03
 STRESS PERIOD TIME  86400.      1440.0      24.000      1.0000     2.73785E-03
         TOTAL TIME 1.86624E+07 3.11040E+05  5184.0      216.00     0.59138    


end timestep


start timestep kper="217" kstp="1" mode="normal"

 #Stressperiod Save Options

 BEGIN READING OUTPUT CONTROL FOR STRESS PERIOD 217
      ALL TIME STEPS WILL BE SAVED
      ALL TIME STEPS WILL BE SAVED

 END READING OUTPUT CONTROL FOR STRESS PERIOD 217


 PROCESSING STORAGE PERIOD DATA
 END PROCESSING STORAGE PERIOD DATA


 STRESS PERIOD 217 IS TRANSIENT


 REUSING DRNS FROM LAST STRESS PERIOD

 REUSING RIVS FROM LAST STRESS PERIOD

 REUSING RIVS FROM LAST STRESS PERIOD

 REUSING RCHS FROM LAST STRESS PERIOD
 UBDSV06 SAVING              DRN IN MODEL GWF_1            PACKAGE GWF_1           CONNECTED TO MODEL GWF_1            PACKAGE DRN_SYS1         ON UNIT   1018 AT TIME STEP      1, STRESS PERIOD    217
 UBDSV06 SAVING              RIV IN MODEL GWF_1            PACKAGE GWF_1           CONNECTED TO MODEL GWF_1            PACKAGE RIV_SYS1         ON UNIT   1018 AT TIME STEP      1, STRESS PERIOD    217
 UBDSV06 SAVING              RIV IN MODEL GWF_1            PACKAGE GWF_1           CONNECTED TO MODEL GWF_1            PACKAGE RIV_SYS2         ON UNIT   1018 AT TIME STEP      1, STRESS PERIOD    217

 HEAD WILL BE SAVED ON UNIT 1017 AT END OF TIME STEP    1, STRESS PERIOD  217


  VOLUME BUDGET FOR ENTIRE MODEL AT END OF TIME STEP    1, STRESS PERIOD 217
  ---------------------------------------------------------------------------------------------------

     CUMULATIVE VOLUME      L**3       RATES FOR THIS TIME STEP      L**3/T          PACKAGE NAME    
     ------------------                 ------------------------                     ----------------

           IN:                                      IN:
           ---                                      ---
              STO-SS =      227436.7057                STO-SS =       8.7131E-02     STORAGE                          
                 DRN =           0.0000                   DRN =           0.0000     DRN_SYS1                         
                 RIV =      235525.7483                   RIV =        1275.8095     RIV_SYS1                         
                 RIV =           0.0000                   RIV =           0.0000     RIV_SYS2                         
                 RCH =           0.0000                   RCH =           0.0000     RCH_MSW                          

            TOTAL IN =      462962.4541              TOTAL IN =        1275.8967

          OUT:                                     OUT:
          ----                                     ----
              STO-SS =           0.0000                STO-SS =           0.0000     STORAGE                          
                 DRN =        7522.9169                   DRN =           9.3248     DRN_SYS1                         
                 RIV =      433015.6375                   RIV =        1226.9314     RIV_SYS1                         
                 RIV =       22425.5851                   RIV =          39.6413     RIV_SYS2                         
                 RCH =           0.0000                   RCH =           0.0000     RCH_MSW                          

           TOTAL OUT =      462964.1395             TOTAL OUT =        1275.8975

            IN - OUT =          -1.6854              IN - OUT =      -8.8878E-04

 PERCENT DISCREPANCY =          -0.00     PERCENT DISCREPANCY =          -0.00




         TIME SUMMARY AT END OF TIME STEP    1 IN STRESS PERIOD  217
                    SECONDS     MINUTES      HOURS       DAYS        YEARS
                    -----------------------------------------------------------
   TIME STEP LENGTH  86400.      1440.0      24.000      1.0000     2.73785E-03
 STRESS PERIOD TIME  86400.      1440.0      24.000      1.0000     2.73785E-03
         TOTAL TIME 1.87488E+07 3.12480E+05  5208.0      217.00     0.59411    


end timestep


start timestep kper="218" kstp="1" mode="normal"

 #Stressperiod Save Options

 BEGIN READING OUTPUT CONTROL FOR STRESS PERIOD 218
      ALL TIME STEPS WILL BE SAVED
      ALL TIME STEPS WILL BE SAVED

 END READING OUTPUT CONTROL FOR STRESS PERIOD 218


 PROCESSING STORAGE PERIOD DATA
 END PROCESSING STORAGE PERIOD DATA


 STRESS PERIOD 218 IS TRANSIENT


 REUSING DRNS FROM LAST STRESS PERIOD

 REUSING RIVS FROM LAST STRESS PERIOD

 REUSING RIVS FROM LAST STRESS PERIOD

 REUSING RCHS FROM LAST STRESS PERIOD
 UBDSV06 SAVING              DRN IN MODEL GWF_1            PACKAGE GWF_1           CONNECTED TO MODEL GWF_1            PACKAGE DRN_SYS1         ON UNIT   1018 AT TIME STEP      1, STRESS PERIOD    218
 UBDSV06 SAVING              RIV IN MODEL GWF_1            PACKAGE GWF_1           CONNECTED TO MODEL GWF_1            PACKAGE RIV_SYS1         ON UNIT   1018 AT TIME STEP      1, STRESS PERIOD    218
 UBDSV06 SAVING              RIV IN MODEL GWF_1            PACKAGE GWF_1           CONNECTED TO MODEL GWF_1            PACKAGE RIV_SYS2         ON UNIT   1018 AT TIME STEP      1, STRESS PERIOD    218

 HEAD WILL BE SAVED ON UNIT 1017 AT END OF TIME STEP    1, STRESS PERIOD  218


  VOLUME BUDGET FOR ENTIRE MODEL AT END OF TIME STEP    1, STRESS PERIOD 218
  ---------------------------------------------------------------------------------------------------

     CUMULATIVE VOLUME      L**3       RATES FOR THIS TIME STEP      L**3/T          PACKAGE NAME    
     ------------------                 ------------------------                     ----------------

           IN:                                      IN:
           ---                                      ---
              STO-SS =      227436.7883                STO-SS =       8.2577E-02     STORAGE                          
                 DRN =           0.0000                   DRN =           0.0000     DRN_SYS1                         
                 RIV =      236801.5593                   RIV =        1275.8110     RIV_SYS1                         
                 RIV =           0.0000                   RIV =           0.0000     RIV_SYS2                         
                 RCH =           0.0000                   RCH =           0.0000     RCH_MSW                          

            TOTAL IN =      464238.3476              TOTAL IN =        1275.8936

          OUT:                                     OUT:
          ----                                     ----
              STO-SS =           0.0000                STO-SS =           0.0000     STORAGE                          
                 DRN =        7532.2415                   DRN =           9.3247     DRN_SYS1                         
                 RIV =      434242.5662                   RIV =        1226.9287     RIV_SYS1                         
                 RIV =       22465.2261                   RIV =          39.6410     RIV_SYS2                         
                 RCH =           0.0000                   RCH =           0.0000     RCH_MSW                          

           TOTAL OUT =      464240.0339             TOTAL OUT =        1275.8944

            IN - OUT =          -1.6863              IN - OUT =      -8.4229E-04

 PERCENT DISCREPANCY =          -0.00     PERCENT DISCREPANCY =          -0.00




         TIME SUMMARY AT END OF TIME STEP    1 IN STRESS PERIOD  218
                    SECONDS     MINUTES      HOURS       DAYS        YEARS
                    -----------------------------------------------------------
   TIME STEP LENGTH  86400.      1440.0      24.000      1.0000     2.73785E-03
 STRESS PERIOD TIME  86400.      1440.0      24.000      1.0000     2.73785E-03
         TOTAL TIME 1.88352E+07 3.13920E+05  5232.0      218.00     0.59685    


end timestep


start timestep kper="219" kstp="1" mode="normal"

 #Stressperiod Save Options

 BEGIN READING OUTPUT CONTROL FOR STRESS PERIOD 219
      ALL TIME STEPS WILL BE SAVED
      ALL TIME STEPS WILL BE SAVED

 END READING OUTPUT CONTROL FOR STRESS PERIOD 219


 PROCESSING STORAGE PERIOD DATA
 END PROCESSING STORAGE PERIOD DATA


 STRESS PERIOD 219 IS TRANSIENT


 REUSING DRNS FROM LAST STRESS PERIOD

 REUSING RIVS FROM LAST STRESS PERIOD

 REUSING RIVS FROM LAST STRESS PERIOD

 REUSING RCHS FROM LAST STRESS PERIOD
 UBDSV06 SAVING              DRN IN MODEL GWF_1            PACKAGE GWF_1           CONNECTED TO MODEL GWF_1            PACKAGE DRN_SYS1         ON UNIT   1018 AT TIME STEP      1, STRESS PERIOD    219
 UBDSV06 SAVING              RIV IN MODEL GWF_1            PACKAGE GWF_1           CONNECTED TO MODEL GWF_1            PACKAGE RIV_SYS1         ON UNIT   1018 AT TIME STEP      1, STRESS PERIOD    219
 UBDSV06 SAVING              RIV IN MODEL GWF_1            PACKAGE GWF_1           CONNECTED TO MODEL GWF_1            PACKAGE RIV_SYS2         ON UNIT   1018 AT TIME STEP      1, STRESS PERIOD    219

 HEAD WILL BE SAVED ON UNIT 1017 AT END OF TIME STEP    1, STRESS PERIOD  219


  VOLUME BUDGET FOR ENTIRE MODEL AT END OF TIME STEP    1, STRESS PERIOD 219
  ---------------------------------------------------------------------------------------------------

     CUMULATIVE VOLUME      L**3       RATES FOR THIS TIME STEP      L**3/T          PACKAGE NAME    
     ------------------                 ------------------------                     ----------------

           IN:                                      IN:
           ---                                      ---
              STO-SS =      227436.8665                STO-SS =       7.8261E-02     STORAGE                          
                 DRN =           0.0000                   DRN =           0.0000     DRN_SYS1                         
                 RIV =      238077.3717                   RIV =        1275.8124     RIV_SYS1                         
                 RIV =           0.0000                   RIV =           0.0000     RIV_SYS2                         
                 RCH =           0.0000                   RCH =           0.0000     RCH_MSW                          

            TOTAL IN =      465514.2382              TOTAL IN =        1275.8906

          OUT:                                     OUT:
          ----                                     ----
              STO-SS =           0.0000                STO-SS =           0.0000     STORAGE                          
                 DRN =        7541.5660                   DRN =           9.3245     DRN_SYS1                         
                 RIV =      435469.4924                   RIV =        1226.9262     RIV_SYS1                         
                 RIV =       22504.8669                   RIV =          39.6407     RIV_SYS2                         
                 RCH =           0.0000                   RCH =           0.0000     RCH_MSW                          

           TOTAL OUT =      465515.9253             TOTAL OUT =        1275.8914

            IN - OUT =          -1.6871              IN - OUT =      -7.9824E-04

 PERCENT DISCREPANCY =          -0.00     PERCENT DISCREPANCY =          -0.00




         TIME SUMMARY AT END OF TIME STEP    1 IN STRESS PERIOD  219
                    SECONDS     MINUTES      HOURS       DAYS        YEARS
                    -----------------------------------------------------------
   TIME STEP LENGTH  86400.      1440.0      24.000      1.0000     2.73785E-03
 STRESS PERIOD TIME  86400.      1440.0      24.000      1.0000     2.73785E-03
         TOTAL TIME 1.89216E+07 3.15360E+05  5256.0      219.00     0.59959    


end timestep


start timestep kper="220" kstp="1" mode="normal"

 #Stressperiod Save Options

 BEGIN READING OUTPUT CONTROL FOR STRESS PERIOD 220
      ALL TIME STEPS WILL BE SAVED
      ALL TIME STEPS WILL BE SAVED

 END READING OUTPUT CONTROL FOR STRESS PERIOD 220


 PROCESSING STORAGE PERIOD DATA
 END PROCESSING STORAGE PERIOD DATA


 STRESS PERIOD 220 IS TRANSIENT


 REUSING DRNS FROM LAST STRESS PERIOD

 REUSING RIVS FROM LAST STRESS PERIOD

 REUSING RIVS FROM LAST STRESS PERIOD

 REUSING RCHS FROM LAST STRESS PERIOD
 UBDSV06 SAVING              DRN IN MODEL GWF_1            PACKAGE GWF_1           CONNECTED TO MODEL GWF_1            PACKAGE DRN_SYS1         ON UNIT   1018 AT TIME STEP      1, STRESS PERIOD    220
 UBDSV06 SAVING              RIV IN MODEL GWF_1            PACKAGE GWF_1           CONNECTED TO MODEL GWF_1            PACKAGE RIV_SYS1         ON UNIT   1018 AT TIME STEP      1, STRESS PERIOD    220
 UBDSV06 SAVING              RIV IN MODEL GWF_1            PACKAGE GWF_1           CONNECTED TO MODEL GWF_1            PACKAGE RIV_SYS2         ON UNIT   1018 AT TIME STEP      1, STRESS PERIOD    220

 HEAD WILL BE SAVED ON UNIT 1017 AT END OF TIME STEP    1, STRESS PERIOD  220


  VOLUME BUDGET FOR ENTIRE MODEL AT END OF TIME STEP    1, STRESS PERIOD 220
  ---------------------------------------------------------------------------------------------------

     CUMULATIVE VOLUME      L**3       RATES FOR THIS TIME STEP      L**3/T          PACKAGE NAME    
     ------------------                 ------------------------                     ----------------

           IN:                                      IN:
           ---                                      ---
              STO-SS =      227436.9407                STO-SS =       7.4170E-02     STORAGE                          
                 DRN =           0.0000                   DRN =           0.0000     DRN_SYS1                         
                 RIV =      239353.1854                   RIV =        1275.8137     RIV_SYS1                         
                 RIV =           0.0000                   RIV =           0.0000     RIV_SYS2                         
                 RCH =           0.0000                   RCH =           0.0000     RCH_MSW                          

            TOTAL IN =      466790.1261              TOTAL IN =        1275.8879

          OUT:                                     OUT:
          ----                                     ----
              STO-SS =           0.0000                STO-SS =           0.0000     STORAGE                          
                 DRN =        7550.8904                   DRN =           9.3244     DRN_SYS1                         
                 RIV =      436696.4162                   RIV =        1226.9238     RIV_SYS1                         
                 RIV =       22544.5074                   RIV =          39.6405     RIV_SYS2                         
                 RCH =           0.0000                   RCH =           0.0000     RCH_MSW                          

           TOTAL OUT =      466791.8139             TOTAL OUT =        1275.8886

            IN - OUT =          -1.6878              IN - OUT =      -7.5650E-04

 PERCENT DISCREPANCY =          -0.00     PERCENT DISCREPANCY =          -0.00




         TIME SUMMARY AT END OF TIME STEP    1 IN STRESS PERIOD  220
                    SECONDS     MINUTES      HOURS       DAYS        YEARS
                    -----------------------------------------------------------
   TIME STEP LENGTH  86400.      1440.0      24.000      1.0000     2.73785E-03
 STRESS PERIOD TIME  86400.      1440.0      24.000      1.0000     2.73785E-03
         TOTAL TIME 1.90080E+07 3.16800E+05  5280.0      220.00     0.60233    


end timestep


start timestep kper="221" kstp="1" mode="normal"

 #Stressperiod Save Options

 BEGIN READING OUTPUT CONTROL FOR STRESS PERIOD 221
      ALL TIME STEPS WILL BE SAVED
      ALL TIME STEPS WILL BE SAVED

 END READING OUTPUT CONTROL FOR STRESS PERIOD 221


 PROCESSING STORAGE PERIOD DATA
 END PROCESSING STORAGE PERIOD DATA


 STRESS PERIOD 221 IS TRANSIENT


 REUSING DRNS FROM LAST STRESS PERIOD

 REUSING RIVS FROM LAST STRESS PERIOD

 REUSING RIVS FROM LAST STRESS PERIOD

 REUSING RCHS FROM LAST STRESS PERIOD
 UBDSV06 SAVING              DRN IN MODEL GWF_1            PACKAGE GWF_1           CONNECTED TO MODEL GWF_1            PACKAGE DRN_SYS1         ON UNIT   1018 AT TIME STEP      1, STRESS PERIOD    221
 UBDSV06 SAVING              RIV IN MODEL GWF_1            PACKAGE GWF_1           CONNECTED TO MODEL GWF_1            PACKAGE RIV_SYS1         ON UNIT   1018 AT TIME STEP      1, STRESS PERIOD    221
 UBDSV06 SAVING              RIV IN MODEL GWF_1            PACKAGE GWF_1           CONNECTED TO MODEL GWF_1            PACKAGE RIV_SYS2         ON UNIT   1018 AT TIME STEP      1, STRESS PERIOD    221

 HEAD WILL BE SAVED ON UNIT 1017 AT END OF TIME STEP    1, STRESS PERIOD  221


  VOLUME BUDGET FOR ENTIRE MODEL AT END OF TIME STEP    1, STRESS PERIOD 221
  ---------------------------------------------------------------------------------------------------

     CUMULATIVE VOLUME      L**3       RATES FOR THIS TIME STEP      L**3/T          PACKAGE NAME    
     ------------------                 ------------------------                     ----------------

           IN:                                      IN:
           ---                                      ---
              STO-SS =      227437.0110                STO-SS =       7.0293E-02     STORAGE                          
                 DRN =           0.0000                   DRN =           0.0000     DRN_SYS1                         
                 RIV =      240629.0003                   RIV =        1275.8149     RIV_SYS1                         
                 RIV =           0.0000                   RIV =           0.0000     RIV_SYS2                         
                 RCH =           0.0000                   RCH =           0.0000     RCH_MSW                          

            TOTAL IN =      468066.0113              TOTAL IN =        1275.8852

          OUT:                                     OUT:
          ----                                     ----
              STO-SS =           0.0000                STO-SS =           0.0000     STORAGE                          
                 DRN =        7560.2146                   DRN =           9.3242     DRN_SYS1                         
                 RIV =      437923.3376                   RIV =        1226.9215     RIV_SYS1                         
                 RIV =       22584.1476                   RIV =          39.6402     RIV_SYS2                         
                 RCH =           0.0000                   RCH =           0.0000     RCH_MSW                          

           TOTAL OUT =      468067.6999             TOTAL OUT =        1275.8859

            IN - OUT =          -1.6885              IN - OUT =      -7.1693E-04

 PERCENT DISCREPANCY =          -0.00     PERCENT DISCREPANCY =          -0.00




         TIME SUMMARY AT END OF TIME STEP    1 IN STRESS PERIOD  221
                    SECONDS     MINUTES      HOURS       DAYS        YEARS
                    -----------------------------------------------------------
   TIME STEP LENGTH  86400.      1440.0      24.000      1.0000     2.73785E-03
 STRESS PERIOD TIME  86400.      1440.0      24.000      1.0000     2.73785E-03
         TOTAL TIME 1.90944E+07 3.18240E+05  5304.0      221.00     0.60507    


end timestep


start timestep kper="222" kstp="1" mode="normal"

 #Stressperiod Save Options

 BEGIN READING OUTPUT CONTROL FOR STRESS PERIOD 222
      ALL TIME STEPS WILL BE SAVED
      ALL TIME STEPS WILL BE SAVED

 END READING OUTPUT CONTROL FOR STRESS PERIOD 222


 PROCESSING STORAGE PERIOD DATA
 END PROCESSING STORAGE PERIOD DATA


 STRESS PERIOD 222 IS TRANSIENT


 REUSING DRNS FROM LAST STRESS PERIOD

 REUSING RIVS FROM LAST STRESS PERIOD

 REUSING RIVS FROM LAST STRESS PERIOD

 REUSING RCHS FROM LAST STRESS PERIOD
 UBDSV06 SAVING              DRN IN MODEL GWF_1            PACKAGE GWF_1           CONNECTED TO MODEL GWF_1            PACKAGE DRN_SYS1         ON UNIT   1018 AT TIME STEP      1, STRESS PERIOD    222
 UBDSV06 SAVING              RIV IN MODEL GWF_1            PACKAGE GWF_1           CONNECTED TO MODEL GWF_1            PACKAGE RIV_SYS1         ON UNIT   1018 AT TIME STEP      1, STRESS PERIOD    222
 UBDSV06 SAVING              RIV IN MODEL GWF_1            PACKAGE GWF_1           CONNECTED TO MODEL GWF_1            PACKAGE RIV_SYS2         ON UNIT   1018 AT TIME STEP      1, STRESS PERIOD    222

 HEAD WILL BE SAVED ON UNIT 1017 AT END OF TIME STEP    1, STRESS PERIOD  222


  VOLUME BUDGET FOR ENTIRE MODEL AT END OF TIME STEP    1, STRESS PERIOD 222
  ---------------------------------------------------------------------------------------------------

     CUMULATIVE VOLUME      L**3       RATES FOR THIS TIME STEP      L**3/T          PACKAGE NAME    
     ------------------                 ------------------------                     ----------------

           IN:                                      IN:
           ---                                      ---
              STO-SS =      227437.0776                STO-SS =       6.6619E-02     STORAGE                          
                 DRN =           0.0000                   DRN =           0.0000     DRN_SYS1                         
                 RIV =      241904.8164                   RIV =        1275.8161     RIV_SYS1                         
                 RIV =           0.0000                   RIV =           0.0000     RIV_SYS2                         
                 RCH =           0.0000                   RCH =           0.0000     RCH_MSW                          

            TOTAL IN =      469341.8941              TOTAL IN =        1275.8827

          OUT:                                     OUT:
          ----                                     ----
              STO-SS =           0.0000                STO-SS =           0.0000     STORAGE                          
                 DRN =        7569.5388                   DRN =           9.3241     DRN_SYS1                         
                 RIV =      439150.2569                   RIV =        1226.9193     RIV_SYS1                         
                 RIV =       22623.7876                   RIV =          39.6400     RIV_SYS2                         
                 RCH =           0.0000                   RCH =           0.0000     RCH_MSW                          

           TOTAL OUT =      469343.5833             TOTAL OUT =        1275.8834

            IN - OUT =          -1.6892              IN - OUT =      -6.7944E-04

 PERCENT DISCREPANCY =          -0.00     PERCENT DISCREPANCY =          -0.00




         TIME SUMMARY AT END OF TIME STEP    1 IN STRESS PERIOD  222
                    SECONDS     MINUTES      HOURS       DAYS        YEARS
                    -----------------------------------------------------------
   TIME STEP LENGTH  86400.      1440.0      24.000      1.0000     2.73785E-03
 STRESS PERIOD TIME  86400.      1440.0      24.000      1.0000     2.73785E-03
         TOTAL TIME 1.91808E+07 3.19680E+05  5328.0      222.00     0.60780    


end timestep


start timestep kper="223" kstp="1" mode="normal"

 #Stressperiod Save Options

 BEGIN READING OUTPUT CONTROL FOR STRESS PERIOD 223
      ALL TIME STEPS WILL BE SAVED
      ALL TIME STEPS WILL BE SAVED

 END READING OUTPUT CONTROL FOR STRESS PERIOD 223


 PROCESSING STORAGE PERIOD DATA
 END PROCESSING STORAGE PERIOD DATA


 STRESS PERIOD 223 IS TRANSIENT


 REUSING DRNS FROM LAST STRESS PERIOD

 REUSING RIVS FROM LAST STRESS PERIOD

 REUSING RIVS FROM LAST STRESS PERIOD

 REUSING RCHS FROM LAST STRESS PERIOD
 UBDSV06 SAVING              DRN IN MODEL GWF_1            PACKAGE GWF_1           CONNECTED TO MODEL GWF_1            PACKAGE DRN_SYS1         ON UNIT   1018 AT TIME STEP      1, STRESS PERIOD    223
 UBDSV06 SAVING              RIV IN MODEL GWF_1            PACKAGE GWF_1           CONNECTED TO MODEL GWF_1            PACKAGE RIV_SYS1         ON UNIT   1018 AT TIME STEP      1, STRESS PERIOD    223
 UBDSV06 SAVING              RIV IN MODEL GWF_1            PACKAGE GWF_1           CONNECTED TO MODEL GWF_1            PACKAGE RIV_SYS2         ON UNIT   1018 AT TIME STEP      1, STRESS PERIOD    223

 HEAD WILL BE SAVED ON UNIT 1017 AT END OF TIME STEP    1, STRESS PERIOD  223


  VOLUME BUDGET FOR ENTIRE MODEL AT END OF TIME STEP    1, STRESS PERIOD 223
  ---------------------------------------------------------------------------------------------------

     CUMULATIVE VOLUME      L**3       RATES FOR THIS TIME STEP      L**3/T          PACKAGE NAME    
     ------------------                 ------------------------                     ----------------

           IN:                                      IN:
           ---                                      ---
              STO-SS =      227437.1408                STO-SS =       6.3137E-02     STORAGE                          
                 DRN =           0.0000                   DRN =           0.0000     DRN_SYS1                         
                 RIV =      243180.6336                   RIV =        1275.8172     RIV_SYS1                         
                 RIV =           0.0000                   RIV =           0.0000     RIV_SYS2                         
                 RCH =           0.0000                   RCH =           0.0000     RCH_MSW                          

            TOTAL IN =      470617.7744              TOTAL IN =        1275.8804

          OUT:                                     OUT:
          ----                                     ----
              STO-SS =           0.0000                STO-SS =           0.0000     STORAGE                          
                 DRN =        7578.8628                   DRN =           9.3240     DRN_SYS1                         
                 RIV =      440377.1741                   RIV =        1226.9172     RIV_SYS1                         
                 RIV =       22663.4274                   RIV =          39.6398     RIV_SYS2                         
                 RCH =           0.0000                   RCH =           0.0000     RCH_MSW                          

           TOTAL OUT =      470619.4643             TOTAL OUT =        1275.8810

            IN - OUT =          -1.6899              IN - OUT =      -6.4391E-04

 PERCENT DISCREPANCY =          -0.00     PERCENT DISCREPANCY =          -0.00




         TIME SUMMARY AT END OF TIME STEP    1 IN STRESS PERIOD  223
                    SECONDS     MINUTES      HOURS       DAYS        YEARS
                    -----------------------------------------------------------
   TIME STEP LENGTH  86400.      1440.0      24.000      1.0000     2.73785E-03
 STRESS PERIOD TIME  86400.      1440.0      24.000      1.0000     2.73785E-03
         TOTAL TIME 1.92672E+07 3.21120E+05  5352.0      223.00     0.61054    


end timestep


start timestep kper="224" kstp="1" mode="normal"

 #Stressperiod Save Options

 BEGIN READING OUTPUT CONTROL FOR STRESS PERIOD 224
      ALL TIME STEPS WILL BE SAVED
      ALL TIME STEPS WILL BE SAVED

 END READING OUTPUT CONTROL FOR STRESS PERIOD 224


 PROCESSING STORAGE PERIOD DATA
 END PROCESSING STORAGE PERIOD DATA


 STRESS PERIOD 224 IS TRANSIENT


 REUSING DRNS FROM LAST STRESS PERIOD

 REUSING RIVS FROM LAST STRESS PERIOD

 REUSING RIVS FROM LAST STRESS PERIOD

 REUSING RCHS FROM LAST STRESS PERIOD
 UBDSV06 SAVING              DRN IN MODEL GWF_1            PACKAGE GWF_1           CONNECTED TO MODEL GWF_1            PACKAGE DRN_SYS1         ON UNIT   1018 AT TIME STEP      1, STRESS PERIOD    224
 UBDSV06 SAVING              RIV IN MODEL GWF_1            PACKAGE GWF_1           CONNECTED TO MODEL GWF_1            PACKAGE RIV_SYS1         ON UNIT   1018 AT TIME STEP      1, STRESS PERIOD    224
 UBDSV06 SAVING              RIV IN MODEL GWF_1            PACKAGE GWF_1           CONNECTED TO MODEL GWF_1            PACKAGE RIV_SYS2         ON UNIT   1018 AT TIME STEP      1, STRESS PERIOD    224

 HEAD WILL BE SAVED ON UNIT 1017 AT END OF TIME STEP    1, STRESS PERIOD  224


  VOLUME BUDGET FOR ENTIRE MODEL AT END OF TIME STEP    1, STRESS PERIOD 224
  ---------------------------------------------------------------------------------------------------

     CUMULATIVE VOLUME      L**3       RATES FOR THIS TIME STEP      L**3/T          PACKAGE NAME    
     ------------------                 ------------------------                     ----------------

           IN:                                      IN:
           ---                                      ---
              STO-SS =      227437.2006                STO-SS =       5.9837E-02     STORAGE                          
                 DRN =           0.0000                   DRN =           0.0000     DRN_SYS1                         
                 RIV =      244456.4519                   RIV =        1275.8183     RIV_SYS1                         
                 RIV =           0.0000                   RIV =           0.0000     RIV_SYS2                         
                 RCH =           0.0000                   RCH =           0.0000     RCH_MSW                          

            TOTAL IN =      471893.6525              TOTAL IN =        1275.8781

          OUT:                                     OUT:
          ----                                     ----
              STO-SS =           0.0000                STO-SS =           0.0000     STORAGE                          
                 DRN =        7588.1867                   DRN =           9.3239     DRN_SYS1                         
                 RIV =      441604.0894                   RIV =        1226.9153     RIV_SYS1                         
                 RIV =       22703.0670                   RIV =          39.6396     RIV_SYS2                         
                 RCH =           0.0000                   RCH =           0.0000     RCH_MSW                          

           TOTAL OUT =      471895.3430             TOTAL OUT =        1275.8787

            IN - OUT =          -1.6905              IN - OUT =      -6.1023E-04

 PERCENT DISCREPANCY =          -0.00     PERCENT DISCREPANCY =          -0.00




         TIME SUMMARY AT END OF TIME STEP    1 IN STRESS PERIOD  224
                    SECONDS     MINUTES      HOURS       DAYS        YEARS
                    -----------------------------------------------------------
   TIME STEP LENGTH  86400.      1440.0      24.000      1.0000     2.73785E-03
 STRESS PERIOD TIME  86400.      1440.0      24.000      1.0000     2.73785E-03
         TOTAL TIME 1.93536E+07 3.22560E+05  5376.0      224.00     0.61328    


end timestep


start timestep kper="225" kstp="1" mode="normal"

 #Stressperiod Save Options

 BEGIN READING OUTPUT CONTROL FOR STRESS PERIOD 225
      ALL TIME STEPS WILL BE SAVED
      ALL TIME STEPS WILL BE SAVED

 END READING OUTPUT CONTROL FOR STRESS PERIOD 225


 PROCESSING STORAGE PERIOD DATA
 END PROCESSING STORAGE PERIOD DATA


 STRESS PERIOD 225 IS TRANSIENT


 REUSING DRNS FROM LAST STRESS PERIOD

 REUSING RIVS FROM LAST STRESS PERIOD

 REUSING RIVS FROM LAST STRESS PERIOD

 REUSING RCHS FROM LAST STRESS PERIOD
 UBDSV06 SAVING              DRN IN MODEL GWF_1            PACKAGE GWF_1           CONNECTED TO MODEL GWF_1            PACKAGE DRN_SYS1         ON UNIT   1018 AT TIME STEP      1, STRESS PERIOD    225
 UBDSV06 SAVING              RIV IN MODEL GWF_1            PACKAGE GWF_1           CONNECTED TO MODEL GWF_1            PACKAGE RIV_SYS1         ON UNIT   1018 AT TIME STEP      1, STRESS PERIOD    225
 UBDSV06 SAVING              RIV IN MODEL GWF_1            PACKAGE GWF_1           CONNECTED TO MODEL GWF_1            PACKAGE RIV_SYS2         ON UNIT   1018 AT TIME STEP      1, STRESS PERIOD    225

 HEAD WILL BE SAVED ON UNIT 1017 AT END OF TIME STEP    1, STRESS PERIOD  225


  VOLUME BUDGET FOR ENTIRE MODEL AT END OF TIME STEP    1, STRESS PERIOD 225
  ---------------------------------------------------------------------------------------------------

     CUMULATIVE VOLUME      L**3       RATES FOR THIS TIME STEP      L**3/T          PACKAGE NAME    
     ------------------                 ------------------------                     ----------------

           IN:                                      IN:
           ---                                      ---
              STO-SS =      227437.2573                STO-SS =       5.6709E-02     STORAGE                          
                 DRN =           0.0000                   DRN =           0.0000     DRN_SYS1                         
                 RIV =      245732.2712                   RIV =        1275.8193     RIV_SYS1                         
                 RIV =           0.0000                   RIV =           0.0000     RIV_SYS2                         
                 RCH =           0.0000                   RCH =           0.0000     RCH_MSW                          

            TOTAL IN =      473169.5285              TOTAL IN =        1275.8760

          OUT:                                     OUT:
          ----                                     ----
              STO-SS =           0.0000                STO-SS =           0.0000     STORAGE                          
                 DRN =        7597.5104                   DRN =           9.3238     DRN_SYS1                         
                 RIV =      442831.0028                   RIV =        1226.9134     RIV_SYS1                         
                 RIV =       22742.7064                   RIV =          39.6394     RIV_SYS2                         
                 RCH =           0.0000                   RCH =           0.0000     RCH_MSW                          

           TOTAL OUT =      473171.2196             TOTAL OUT =        1275.8766

            IN - OUT =          -1.6910              IN - OUT =      -5.7832E-04

 PERCENT DISCREPANCY =          -0.00     PERCENT DISCREPANCY =          -0.00




         TIME SUMMARY AT END OF TIME STEP    1 IN STRESS PERIOD  225
                    SECONDS     MINUTES      HOURS       DAYS        YEARS
                    -----------------------------------------------------------
   TIME STEP LENGTH  86400.      1440.0      24.000      1.0000     2.73785E-03
 STRESS PERIOD TIME  86400.      1440.0      24.000      1.0000     2.73785E-03
         TOTAL TIME 1.94400E+07 3.24000E+05  5400.0      225.00     0.61602    


end timestep


start timestep kper="226" kstp="1" mode="normal"

 #Stressperiod Save Options

 BEGIN READING OUTPUT CONTROL FOR STRESS PERIOD 226
      ALL TIME STEPS WILL BE SAVED
      ALL TIME STEPS WILL BE SAVED

 END READING OUTPUT CONTROL FOR STRESS PERIOD 226


 PROCESSING STORAGE PERIOD DATA
 END PROCESSING STORAGE PERIOD DATA


 STRESS PERIOD 226 IS TRANSIENT


 REUSING DRNS FROM LAST STRESS PERIOD

 REUSING RIVS FROM LAST STRESS PERIOD

 REUSING RIVS FROM LAST STRESS PERIOD

 REUSING RCHS FROM LAST STRESS PERIOD
 UBDSV06 SAVING              DRN IN MODEL GWF_1            PACKAGE GWF_1           CONNECTED TO MODEL GWF_1            PACKAGE DRN_SYS1         ON UNIT   1018 AT TIME STEP      1, STRESS PERIOD    226
 UBDSV06 SAVING              RIV IN MODEL GWF_1            PACKAGE GWF_1           CONNECTED TO MODEL GWF_1            PACKAGE RIV_SYS1         ON UNIT   1018 AT TIME STEP      1, STRESS PERIOD    226
 UBDSV06 SAVING              RIV IN MODEL GWF_1            PACKAGE GWF_1           CONNECTED TO MODEL GWF_1            PACKAGE RIV_SYS2         ON UNIT   1018 AT TIME STEP      1, STRESS PERIOD    226

 HEAD WILL BE SAVED ON UNIT 1017 AT END OF TIME STEP    1, STRESS PERIOD  226


  VOLUME BUDGET FOR ENTIRE MODEL AT END OF TIME STEP    1, STRESS PERIOD 226
  ---------------------------------------------------------------------------------------------------

     CUMULATIVE VOLUME      L**3       RATES FOR THIS TIME STEP      L**3/T          PACKAGE NAME    
     ------------------                 ------------------------                     ----------------

           IN:                                      IN:
           ---                                      ---
              STO-SS =      227437.3111                STO-SS =       5.3745E-02     STORAGE                          
                 DRN =           0.0000                   DRN =           0.0000     DRN_SYS1                         
                 RIV =      247008.0915                   RIV =        1275.8202     RIV_SYS1                         
                 RIV =           0.0000                   RIV =           0.0000     RIV_SYS2                         
                 RCH =           0.0000                   RCH =           0.0000     RCH_MSW                          

            TOTAL IN =      474445.4025              TOTAL IN =        1275.8740

          OUT:                                     OUT:
          ----                                     ----
              STO-SS =           0.0000                STO-SS =           0.0000     STORAGE                          
                 DRN =        7606.8341                   DRN =           9.3237     DRN_SYS1                         
                 RIV =      444057.9144                   RIV =        1226.9117     RIV_SYS1                         
                 RIV =       22782.3455                   RIV =          39.6392     RIV_SYS2                         
                 RCH =           0.0000                   RCH =           0.0000     RCH_MSW                          

           TOTAL OUT =      474447.0941             TOTAL OUT =        1275.8745

            IN - OUT =          -1.6916              IN - OUT =      -5.4808E-04

 PERCENT DISCREPANCY =          -0.00     PERCENT DISCREPANCY =          -0.00




         TIME SUMMARY AT END OF TIME STEP    1 IN STRESS PERIOD  226
                    SECONDS     MINUTES      HOURS       DAYS        YEARS
                    -----------------------------------------------------------
   TIME STEP LENGTH  86400.      1440.0      24.000      1.0000     2.73785E-03
 STRESS PERIOD TIME  86400.      1440.0      24.000      1.0000     2.73785E-03
         TOTAL TIME 1.95264E+07 3.25440E+05  5424.0      226.00     0.61875    


end timestep


start timestep kper="227" kstp="1" mode="normal"

 #Stressperiod Save Options

 BEGIN READING OUTPUT CONTROL FOR STRESS PERIOD 227
      ALL TIME STEPS WILL BE SAVED
      ALL TIME STEPS WILL BE SAVED

 END READING OUTPUT CONTROL FOR STRESS PERIOD 227


 PROCESSING STORAGE PERIOD DATA
 END PROCESSING STORAGE PERIOD DATA


 STRESS PERIOD 227 IS TRANSIENT


 REUSING DRNS FROM LAST STRESS PERIOD

 REUSING RIVS FROM LAST STRESS PERIOD

 REUSING RIVS FROM LAST STRESS PERIOD

 REUSING RCHS FROM LAST STRESS PERIOD
 UBDSV06 SAVING              DRN IN MODEL GWF_1            PACKAGE GWF_1           CONNECTED TO MODEL GWF_1            PACKAGE DRN_SYS1         ON UNIT   1018 AT TIME STEP      1, STRESS PERIOD    227
 UBDSV06 SAVING              RIV IN MODEL GWF_1            PACKAGE GWF_1           CONNECTED TO MODEL GWF_1            PACKAGE RIV_SYS1         ON UNIT   1018 AT TIME STEP      1, STRESS PERIOD    227
 UBDSV06 SAVING              RIV IN MODEL GWF_1            PACKAGE GWF_1           CONNECTED TO MODEL GWF_1            PACKAGE RIV_SYS2         ON UNIT   1018 AT TIME STEP      1, STRESS PERIOD    227

 HEAD WILL BE SAVED ON UNIT 1017 AT END OF TIME STEP    1, STRESS PERIOD  227


  VOLUME BUDGET FOR ENTIRE MODEL AT END OF TIME STEP    1, STRESS PERIOD 227
  ---------------------------------------------------------------------------------------------------

     CUMULATIVE VOLUME      L**3       RATES FOR THIS TIME STEP      L**3/T          PACKAGE NAME    
     ------------------                 ------------------------                     ----------------

           IN:                                      IN:
           ---                                      ---
              STO-SS =      227437.3620                STO-SS =       5.0936E-02     STORAGE                          
                 DRN =           0.0000                   DRN =           0.0000     DRN_SYS1                         
                 RIV =      248283.9126                   RIV =        1275.8211     RIV_SYS1                         
                 RIV =           0.0000                   RIV =           0.0000     RIV_SYS2                         
                 RCH =           0.0000                   RCH =           0.0000     RCH_MSW                          

            TOTAL IN =      475721.2746              TOTAL IN =        1275.8721

          OUT:                                     OUT:
          ----                                     ----
              STO-SS =           0.0000                STO-SS =           0.0000     STORAGE                          
                 DRN =        7616.1577                   DRN =           9.3236     DRN_SYS1                         
                 RIV =      445284.8244                   RIV =        1226.9100     RIV_SYS1                         
                 RIV =       22821.9845                   RIV =          39.6390     RIV_SYS2                         
                 RCH =           0.0000                   RCH =           0.0000     RCH_MSW                          

           TOTAL OUT =      475722.9667             TOTAL OUT =        1275.8726

            IN - OUT =          -1.6921              IN - OUT =      -5.1942E-04

 PERCENT DISCREPANCY =          -0.00     PERCENT DISCREPANCY =          -0.00




         TIME SUMMARY AT END OF TIME STEP    1 IN STRESS PERIOD  227
                    SECONDS     MINUTES      HOURS       DAYS        YEARS
                    -----------------------------------------------------------
   TIME STEP LENGTH  86400.      1440.0      24.000      1.0000     2.73785E-03
 STRESS PERIOD TIME  86400.      1440.0      24.000      1.0000     2.73785E-03
         TOTAL TIME 1.96128E+07 3.26880E+05  5448.0      227.00     0.62149    


end timestep


start timestep kper="228" kstp="1" mode="normal"

 #Stressperiod Save Options

 BEGIN READING OUTPUT CONTROL FOR STRESS PERIOD 228
      ALL TIME STEPS WILL BE SAVED
      ALL TIME STEPS WILL BE SAVED

 END READING OUTPUT CONTROL FOR STRESS PERIOD 228


 PROCESSING STORAGE PERIOD DATA
 END PROCESSING STORAGE PERIOD DATA


 STRESS PERIOD 228 IS TRANSIENT


 REUSING DRNS FROM LAST STRESS PERIOD

 REUSING RIVS FROM LAST STRESS PERIOD

 REUSING RIVS FROM LAST STRESS PERIOD

 REUSING RCHS FROM LAST STRESS PERIOD
 UBDSV06 SAVING              DRN IN MODEL GWF_1            PACKAGE GWF_1           CONNECTED TO MODEL GWF_1            PACKAGE DRN_SYS1         ON UNIT   1018 AT TIME STEP      1, STRESS PERIOD    228
 UBDSV06 SAVING              RIV IN MODEL GWF_1            PACKAGE GWF_1           CONNECTED TO MODEL GWF_1            PACKAGE RIV_SYS1         ON UNIT   1018 AT TIME STEP      1, STRESS PERIOD    228
 UBDSV06 SAVING              RIV IN MODEL GWF_1            PACKAGE GWF_1           CONNECTED TO MODEL GWF_1            PACKAGE RIV_SYS2         ON UNIT   1018 AT TIME STEP      1, STRESS PERIOD    228

 HEAD WILL BE SAVED ON UNIT 1017 AT END OF TIME STEP    1, STRESS PERIOD  228


  VOLUME BUDGET FOR ENTIRE MODEL AT END OF TIME STEP    1, STRESS PERIOD 228
  ---------------------------------------------------------------------------------------------------

     CUMULATIVE VOLUME      L**3       RATES FOR THIS TIME STEP      L**3/T          PACKAGE NAME    
     ------------------                 ------------------------                     ----------------

           IN:                                      IN:
           ---                                      ---
              STO-SS =      227437.4103                STO-SS =       4.8274E-02     STORAGE                          
                 DRN =           0.0000                   DRN =           0.0000     DRN_SYS1                         
                 RIV =      249559.7346                   RIV =        1275.8220     RIV_SYS1                         
                 RIV =           0.0000                   RIV =           0.0000     RIV_SYS2                         
                 RCH =           0.0000                   RCH =           0.0000     RCH_MSW                          

            TOTAL IN =      476997.1449              TOTAL IN =        1275.8703

          OUT:                                     OUT:
          ----                                     ----
              STO-SS =           0.0000                STO-SS =           0.0000     STORAGE                          
                 DRN =        7625.4812                   DRN =           9.3235     DRN_SYS1                         
                 RIV =      446511.7329                   RIV =        1226.9084     RIV_SYS1                         
                 RIV =       22861.6234                   RIV =          39.6388     RIV_SYS2                         
                 RCH =           0.0000                   RCH =           0.0000     RCH_MSW                          

           TOTAL OUT =      476998.8375             TOTAL OUT =        1275.8708

            IN - OUT =          -1.6926              IN - OUT =      -4.9226E-04

 PERCENT DISCREPANCY =          -0.00     PERCENT DISCREPANCY =          -0.00




         TIME SUMMARY AT END OF TIME STEP    1 IN STRESS PERIOD  228
                    SECONDS     MINUTES      HOURS       DAYS        YEARS
                    -----------------------------------------------------------
   TIME STEP LENGTH  86400.      1440.0      24.000      1.0000     2.73785E-03
 STRESS PERIOD TIME  86400.      1440.0      24.000      1.0000     2.73785E-03
         TOTAL TIME 1.96992E+07 3.28320E+05  5472.0      228.00     0.62423    


end timestep


start timestep kper="229" kstp="1" mode="normal"

 #Stressperiod Save Options

 BEGIN READING OUTPUT CONTROL FOR STRESS PERIOD 229
      ALL TIME STEPS WILL BE SAVED
      ALL TIME STEPS WILL BE SAVED

 END READING OUTPUT CONTROL FOR STRESS PERIOD 229


 PROCESSING STORAGE PERIOD DATA
 END PROCESSING STORAGE PERIOD DATA


 STRESS PERIOD 229 IS TRANSIENT


 REUSING DRNS FROM LAST STRESS PERIOD

 REUSING RIVS FROM LAST STRESS PERIOD

 REUSING RIVS FROM LAST STRESS PERIOD

 REUSING RCHS FROM LAST STRESS PERIOD
 UBDSV06 SAVING              DRN IN MODEL GWF_1            PACKAGE GWF_1           CONNECTED TO MODEL GWF_1            PACKAGE DRN_SYS1         ON UNIT   1018 AT TIME STEP      1, STRESS PERIOD    229
 UBDSV06 SAVING              RIV IN MODEL GWF_1            PACKAGE GWF_1           CONNECTED TO MODEL GWF_1            PACKAGE RIV_SYS1         ON UNIT   1018 AT TIME STEP      1, STRESS PERIOD    229
 UBDSV06 SAVING              RIV IN MODEL GWF_1            PACKAGE GWF_1           CONNECTED TO MODEL GWF_1            PACKAGE RIV_SYS2         ON UNIT   1018 AT TIME STEP      1, STRESS PERIOD    229

 HEAD WILL BE SAVED ON UNIT 1017 AT END OF TIME STEP    1, STRESS PERIOD  229


  VOLUME BUDGET FOR ENTIRE MODEL AT END OF TIME STEP    1, STRESS PERIOD 229
  ---------------------------------------------------------------------------------------------------

     CUMULATIVE VOLUME      L**3       RATES FOR THIS TIME STEP      L**3/T          PACKAGE NAME    
     ------------------                 ------------------------                     ----------------

           IN:                                      IN:
           ---                                      ---
              STO-SS =      227437.4560                STO-SS =       4.5751E-02     STORAGE                          
                 DRN =           0.0000                   DRN =           0.0000     DRN_SYS1                         
                 RIV =      250835.5574                   RIV =        1275.8228     RIV_SYS1                         
                 RIV =           0.0000                   RIV =           0.0000     RIV_SYS2                         
                 RCH =           0.0000                   RCH =           0.0000     RCH_MSW                          

            TOTAL IN =      478273.0134              TOTAL IN =        1275.8686

          OUT:                                     OUT:
          ----                                     ----
              STO-SS =           0.0000                STO-SS =           0.0000     STORAGE                          
                 DRN =        7634.8046                   DRN =           9.3234     DRN_SYS1                         
                 RIV =      447738.6398                   RIV =        1226.9069     RIV_SYS1                         
                 RIV =       22901.2621                   RIV =          39.6387     RIV_SYS2                         
                 RCH =           0.0000                   RCH =           0.0000     RCH_MSW                          

           TOTAL OUT =      478274.7065             TOTAL OUT =        1275.8690

            IN - OUT =          -1.6931              IN - OUT =      -4.6652E-04

 PERCENT DISCREPANCY =          -0.00     PERCENT DISCREPANCY =          -0.00




         TIME SUMMARY AT END OF TIME STEP    1 IN STRESS PERIOD  229
                    SECONDS     MINUTES      HOURS       DAYS        YEARS
                    -----------------------------------------------------------
   TIME STEP LENGTH  86400.      1440.0      24.000      1.0000     2.73785E-03
 STRESS PERIOD TIME  86400.      1440.0      24.000      1.0000     2.73785E-03
         TOTAL TIME 1.97856E+07 3.29760E+05  5496.0      229.00     0.62697    


end timestep


start timestep kper="230" kstp="1" mode="normal"

 #Stressperiod Save Options

 BEGIN READING OUTPUT CONTROL FOR STRESS PERIOD 230
      ALL TIME STEPS WILL BE SAVED
      ALL TIME STEPS WILL BE SAVED

 END READING OUTPUT CONTROL FOR STRESS PERIOD 230


 PROCESSING STORAGE PERIOD DATA
 END PROCESSING STORAGE PERIOD DATA


 STRESS PERIOD 230 IS TRANSIENT


 REUSING DRNS FROM LAST STRESS PERIOD

 REUSING RIVS FROM LAST STRESS PERIOD

 REUSING RIVS FROM LAST STRESS PERIOD

 REUSING RCHS FROM LAST STRESS PERIOD
 UBDSV06 SAVING              DRN IN MODEL GWF_1            PACKAGE GWF_1           CONNECTED TO MODEL GWF_1            PACKAGE DRN_SYS1         ON UNIT   1018 AT TIME STEP      1, STRESS PERIOD    230
 UBDSV06 SAVING              RIV IN MODEL GWF_1            PACKAGE GWF_1           CONNECTED TO MODEL GWF_1            PACKAGE RIV_SYS1         ON UNIT   1018 AT TIME STEP      1, STRESS PERIOD    230
 UBDSV06 SAVING              RIV IN MODEL GWF_1            PACKAGE GWF_1           CONNECTED TO MODEL GWF_1            PACKAGE RIV_SYS2         ON UNIT   1018 AT TIME STEP      1, STRESS PERIOD    230

 HEAD WILL BE SAVED ON UNIT 1017 AT END OF TIME STEP    1, STRESS PERIOD  230


  VOLUME BUDGET FOR ENTIRE MODEL AT END OF TIME STEP    1, STRESS PERIOD 230
  ---------------------------------------------------------------------------------------------------

     CUMULATIVE VOLUME      L**3       RATES FOR THIS TIME STEP      L**3/T          PACKAGE NAME    
     ------------------                 ------------------------                     ----------------

           IN:                                      IN:
           ---                                      ---
              STO-SS =      227437.4994                STO-SS =       4.3359E-02     STORAGE                          
                 DRN =           0.0000                   DRN =           0.0000     DRN_SYS1                         
                 RIV =      252111.3810                   RIV =        1275.8236     RIV_SYS1                         
                 RIV =           0.0000                   RIV =           0.0000     RIV_SYS2                         
                 RCH =           0.0000                   RCH =           0.0000     RCH_MSW                          

            TOTAL IN =      479548.8803              TOTAL IN =        1275.8669

          OUT:                                     OUT:
          ----                                     ----
              STO-SS =           0.0000                STO-SS =           0.0000     STORAGE                          
                 DRN =        7644.1280                   DRN =           9.3233     DRN_SYS1                         
                 RIV =      448965.5453                   RIV =        1226.9055     RIV_SYS1                         
                 RIV =       22940.9006                   RIV =          39.6385     RIV_SYS2                         
                 RCH =           0.0000                   RCH =           0.0000     RCH_MSW                          

           TOTAL OUT =      479550.5739             TOTAL OUT =        1275.8674

            IN - OUT =          -1.6935              IN - OUT =      -4.4212E-04

 PERCENT DISCREPANCY =          -0.00     PERCENT DISCREPANCY =          -0.00




         TIME SUMMARY AT END OF TIME STEP    1 IN STRESS PERIOD  230
                    SECONDS     MINUTES      HOURS       DAYS        YEARS
                    -----------------------------------------------------------
   TIME STEP LENGTH  86400.      1440.0      24.000      1.0000     2.73785E-03
 STRESS PERIOD TIME  86400.      1440.0      24.000      1.0000     2.73785E-03
         TOTAL TIME 1.98720E+07 3.31200E+05  5520.0      230.00     0.62971    


end timestep


start timestep kper="231" kstp="1" mode="normal"

 #Stressperiod Save Options

 BEGIN READING OUTPUT CONTROL FOR STRESS PERIOD 231
      ALL TIME STEPS WILL BE SAVED
      ALL TIME STEPS WILL BE SAVED

 END READING OUTPUT CONTROL FOR STRESS PERIOD 231


 PROCESSING STORAGE PERIOD DATA
 END PROCESSING STORAGE PERIOD DATA


 STRESS PERIOD 231 IS TRANSIENT


 REUSING DRNS FROM LAST STRESS PERIOD

 REUSING RIVS FROM LAST STRESS PERIOD

 REUSING RIVS FROM LAST STRESS PERIOD

 REUSING RCHS FROM LAST STRESS PERIOD
 UBDSV06 SAVING              DRN IN MODEL GWF_1            PACKAGE GWF_1           CONNECTED TO MODEL GWF_1            PACKAGE DRN_SYS1         ON UNIT   1018 AT TIME STEP      1, STRESS PERIOD    231
 UBDSV06 SAVING              RIV IN MODEL GWF_1            PACKAGE GWF_1           CONNECTED TO MODEL GWF_1            PACKAGE RIV_SYS1         ON UNIT   1018 AT TIME STEP      1, STRESS PERIOD    231
 UBDSV06 SAVING              RIV IN MODEL GWF_1            PACKAGE GWF_1           CONNECTED TO MODEL GWF_1            PACKAGE RIV_SYS2         ON UNIT   1018 AT TIME STEP      1, STRESS PERIOD    231

 HEAD WILL BE SAVED ON UNIT 1017 AT END OF TIME STEP    1, STRESS PERIOD  231


  VOLUME BUDGET FOR ENTIRE MODEL AT END OF TIME STEP    1, STRESS PERIOD 231
  ---------------------------------------------------------------------------------------------------

     CUMULATIVE VOLUME      L**3       RATES FOR THIS TIME STEP      L**3/T          PACKAGE NAME    
     ------------------                 ------------------------                     ----------------

           IN:                                      IN:
           ---                                      ---
              STO-SS =      227437.5405                STO-SS =       4.1093E-02     STORAGE                          
                 DRN =           0.0000                   DRN =           0.0000     DRN_SYS1                         
                 RIV =      253387.2053                   RIV =        1275.8243     RIV_SYS1                         
                 RIV =           0.0000                   RIV =           0.0000     RIV_SYS2                         
                 RCH =           0.0000                   RCH =           0.0000     RCH_MSW                          

            TOTAL IN =      480824.7457              TOTAL IN =        1275.8654

          OUT:                                     OUT:
          ----                                     ----
              STO-SS =           0.0000                STO-SS =           0.0000     STORAGE                          
                 DRN =        7653.4513                   DRN =           9.3233     DRN_SYS1                         
                 RIV =      450192.4495                   RIV =        1226.9042     RIV_SYS1                         
                 RIV =       22980.5390                   RIV =          39.6384     RIV_SYS2                         
                 RCH =           0.0000                   RCH =           0.0000     RCH_MSW                          

           TOTAL OUT =      480826.4397             TOTAL OUT =        1275.8658

            IN - OUT =          -1.6939              IN - OUT =      -4.1901E-04

 PERCENT DISCREPANCY =          -0.00     PERCENT DISCREPANCY =          -0.00




         TIME SUMMARY AT END OF TIME STEP    1 IN STRESS PERIOD  231
                    SECONDS     MINUTES      HOURS       DAYS        YEARS
                    -----------------------------------------------------------
   TIME STEP LENGTH  86400.      1440.0      24.000      1.0000     2.73785E-03
 STRESS PERIOD TIME  86400.      1440.0      24.000      1.0000     2.73785E-03
         TOTAL TIME 1.99584E+07 3.32640E+05  5544.0      231.00     0.63244    


end timestep


start timestep kper="232" kstp="1" mode="normal"

 #Stressperiod Save Options

 BEGIN READING OUTPUT CONTROL FOR STRESS PERIOD 232
      ALL TIME STEPS WILL BE SAVED
      ALL TIME STEPS WILL BE SAVED

 END READING OUTPUT CONTROL FOR STRESS PERIOD 232


 PROCESSING STORAGE PERIOD DATA
 END PROCESSING STORAGE PERIOD DATA


 STRESS PERIOD 232 IS TRANSIENT


 REUSING DRNS FROM LAST STRESS PERIOD

 REUSING RIVS FROM LAST STRESS PERIOD

 REUSING RIVS FROM LAST STRESS PERIOD

 REUSING RCHS FROM LAST STRESS PERIOD
 UBDSV06 SAVING              DRN IN MODEL GWF_1            PACKAGE GWF_1           CONNECTED TO MODEL GWF_1            PACKAGE DRN_SYS1         ON UNIT   1018 AT TIME STEP      1, STRESS PERIOD    232
 UBDSV06 SAVING              RIV IN MODEL GWF_1            PACKAGE GWF_1           CONNECTED TO MODEL GWF_1            PACKAGE RIV_SYS1         ON UNIT   1018 AT TIME STEP      1, STRESS PERIOD    232
 UBDSV06 SAVING              RIV IN MODEL GWF_1            PACKAGE GWF_1           CONNECTED TO MODEL GWF_1            PACKAGE RIV_SYS2         ON UNIT   1018 AT TIME STEP      1, STRESS PERIOD    232

 HEAD WILL BE SAVED ON UNIT 1017 AT END OF TIME STEP    1, STRESS PERIOD  232


  VOLUME BUDGET FOR ENTIRE MODEL AT END OF TIME STEP    1, STRESS PERIOD 232
  ---------------------------------------------------------------------------------------------------

     CUMULATIVE VOLUME      L**3       RATES FOR THIS TIME STEP      L**3/T          PACKAGE NAME    
     ------------------                 ------------------------                     ----------------

           IN:                                      IN:
           ---                                      ---
              STO-SS =      227437.5794                STO-SS =       3.8945E-02     STORAGE                          
                 DRN =           0.0000                   DRN =           0.0000     DRN_SYS1                         
                 RIV =      254663.0303                   RIV =        1275.8250     RIV_SYS1                         
                 RIV =           0.0000                   RIV =           0.0000     RIV_SYS2                         
                 RCH =           0.0000                   RCH =           0.0000     RCH_MSW                          

            TOTAL IN =      482100.6097              TOTAL IN =        1275.8639

          OUT:                                     OUT:
          ----                                     ----
              STO-SS =           0.0000                STO-SS =           0.0000     STORAGE                          
                 DRN =        7662.7744                   DRN =           9.3232     DRN_SYS1                         
                 RIV =      451419.3523                   RIV =        1226.9029     RIV_SYS1                         
                 RIV =       23020.1772                   RIV =          39.6382     RIV_SYS2                         
                 RCH =           0.0000                   RCH =           0.0000     RCH_MSW                          

           TOTAL OUT =      482102.3040             TOTAL OUT =        1275.8643

            IN - OUT =          -1.6943              IN - OUT =      -3.9710E-04

 PERCENT DISCREPANCY =          -0.00     PERCENT DISCREPANCY =          -0.00




         TIME SUMMARY AT END OF TIME STEP    1 IN STRESS PERIOD  232
                    SECONDS     MINUTES      HOURS       DAYS        YEARS
                    -----------------------------------------------------------
   TIME STEP LENGTH  86400.      1440.0      24.000      1.0000     2.73785E-03
 STRESS PERIOD TIME  86400.      1440.0      24.000      1.0000     2.73785E-03
         TOTAL TIME 2.00448E+07 3.34080E+05  5568.0      232.00     0.63518    


end timestep


start timestep kper="233" kstp="1" mode="normal"

 #Stressperiod Save Options

 BEGIN READING OUTPUT CONTROL FOR STRESS PERIOD 233
      ALL TIME STEPS WILL BE SAVED
      ALL TIME STEPS WILL BE SAVED

 END READING OUTPUT CONTROL FOR STRESS PERIOD 233


 PROCESSING STORAGE PERIOD DATA
 END PROCESSING STORAGE PERIOD DATA


 STRESS PERIOD 233 IS TRANSIENT


 REUSING DRNS FROM LAST STRESS PERIOD

 REUSING RIVS FROM LAST STRESS PERIOD

 REUSING RIVS FROM LAST STRESS PERIOD

 REUSING RCHS FROM LAST STRESS PERIOD
 UBDSV06 SAVING              DRN IN MODEL GWF_1            PACKAGE GWF_1           CONNECTED TO MODEL GWF_1            PACKAGE DRN_SYS1         ON UNIT   1018 AT TIME STEP      1, STRESS PERIOD    233
 UBDSV06 SAVING              RIV IN MODEL GWF_1            PACKAGE GWF_1           CONNECTED TO MODEL GWF_1            PACKAGE RIV_SYS1         ON UNIT   1018 AT TIME STEP      1, STRESS PERIOD    233
 UBDSV06 SAVING              RIV IN MODEL GWF_1            PACKAGE GWF_1           CONNECTED TO MODEL GWF_1            PACKAGE RIV_SYS2         ON UNIT   1018 AT TIME STEP      1, STRESS PERIOD    233

 HEAD WILL BE SAVED ON UNIT 1017 AT END OF TIME STEP    1, STRESS PERIOD  233


  VOLUME BUDGET FOR ENTIRE MODEL AT END OF TIME STEP    1, STRESS PERIOD 233
  ---------------------------------------------------------------------------------------------------

     CUMULATIVE VOLUME      L**3       RATES FOR THIS TIME STEP      L**3/T          PACKAGE NAME    
     ------------------                 ------------------------                     ----------------

           IN:                                      IN:
           ---                                      ---
              STO-SS =      227437.6163                STO-SS =       3.6910E-02     STORAGE                          
                 DRN =           0.0000                   DRN =           0.0000     DRN_SYS1                         
                 RIV =      255938.8559                   RIV =        1275.8256     RIV_SYS1                         
                 RIV =           0.0000                   RIV =           0.0000     RIV_SYS2                         
                 RCH =           0.0000                   RCH =           0.0000     RCH_MSW                          

            TOTAL IN =      483376.4722              TOTAL IN =        1275.8626

          OUT:                                     OUT:
          ----                                     ----
              STO-SS =           0.0000                STO-SS =           0.0000     STORAGE                          
                 DRN =        7672.0976                   DRN =           9.3231     DRN_SYS1                         
                 RIV =      452646.2540                   RIV =        1226.9017     RIV_SYS1                         
                 RIV =       23059.8153                   RIV =          39.6381     RIV_SYS2                         
                 RCH =           0.0000                   RCH =           0.0000     RCH_MSW                          

           TOTAL OUT =      483378.1669             TOTAL OUT =        1275.8629

            IN - OUT =          -1.6947              IN - OUT =      -3.7633E-04

 PERCENT DISCREPANCY =          -0.00     PERCENT DISCREPANCY =          -0.00




         TIME SUMMARY AT END OF TIME STEP    1 IN STRESS PERIOD  233
                    SECONDS     MINUTES      HOURS       DAYS        YEARS
                    -----------------------------------------------------------
   TIME STEP LENGTH  86400.      1440.0      24.000      1.0000     2.73785E-03
 STRESS PERIOD TIME  86400.      1440.0      24.000      1.0000     2.73785E-03
         TOTAL TIME 2.01312E+07 3.35520E+05  5592.0      233.00     0.63792    


end timestep


start timestep kper="234" kstp="1" mode="normal"

 #Stressperiod Save Options

 BEGIN READING OUTPUT CONTROL FOR STRESS PERIOD 234
      ALL TIME STEPS WILL BE SAVED
      ALL TIME STEPS WILL BE SAVED

 END READING OUTPUT CONTROL FOR STRESS PERIOD 234


 PROCESSING STORAGE PERIOD DATA
 END PROCESSING STORAGE PERIOD DATA


 STRESS PERIOD 234 IS TRANSIENT


 REUSING DRNS FROM LAST STRESS PERIOD

 REUSING RIVS FROM LAST STRESS PERIOD

 REUSING RIVS FROM LAST STRESS PERIOD

 REUSING RCHS FROM LAST STRESS PERIOD
 UBDSV06 SAVING              DRN IN MODEL GWF_1            PACKAGE GWF_1           CONNECTED TO MODEL GWF_1            PACKAGE DRN_SYS1         ON UNIT   1018 AT TIME STEP      1, STRESS PERIOD    234
 UBDSV06 SAVING              RIV IN MODEL GWF_1            PACKAGE GWF_1           CONNECTED TO MODEL GWF_1            PACKAGE RIV_SYS1         ON UNIT   1018 AT TIME STEP      1, STRESS PERIOD    234
 UBDSV06 SAVING              RIV IN MODEL GWF_1            PACKAGE GWF_1           CONNECTED TO MODEL GWF_1            PACKAGE RIV_SYS2         ON UNIT   1018 AT TIME STEP      1, STRESS PERIOD    234

 HEAD WILL BE SAVED ON UNIT 1017 AT END OF TIME STEP    1, STRESS PERIOD  234


  VOLUME BUDGET FOR ENTIRE MODEL AT END OF TIME STEP    1, STRESS PERIOD 234
  ---------------------------------------------------------------------------------------------------

     CUMULATIVE VOLUME      L**3       RATES FOR THIS TIME STEP      L**3/T          PACKAGE NAME    
     ------------------                 ------------------------                     ----------------

           IN:                                      IN:
           ---                                      ---
              STO-SS =      227437.6513                STO-SS =       3.4981E-02     STORAGE                          
                 DRN =           0.0000                   DRN =           0.0000     DRN_SYS1                         
                 RIV =      257214.6822                   RIV =        1275.8263     RIV_SYS1                         
                 RIV =           0.0000                   RIV =           0.0000     RIV_SYS2                         
                 RCH =           0.0000                   RCH =           0.0000     RCH_MSW                          

            TOTAL IN =      484652.3335              TOTAL IN =        1275.8612

          OUT:                                     OUT:
          ----                                     ----
              STO-SS =           0.0000                STO-SS =           0.0000     STORAGE                          
                 DRN =        7681.4206                   DRN =           9.3231     DRN_SYS1                         
                 RIV =      453873.1546                   RIV =        1226.9005     RIV_SYS1                         
                 RIV =       23099.4533                   RIV =          39.6380     RIV_SYS2                         
                 RCH =           0.0000                   RCH =           0.0000     RCH_MSW                          

           TOTAL OUT =      484654.0285             TOTAL OUT =        1275.8616

            IN - OUT =          -1.6951              IN - OUT =      -3.5666E-04

 PERCENT DISCREPANCY =          -0.00     PERCENT DISCREPANCY =          -0.00




         TIME SUMMARY AT END OF TIME STEP    1 IN STRESS PERIOD  234
                    SECONDS     MINUTES      HOURS       DAYS        YEARS
                    -----------------------------------------------------------
   TIME STEP LENGTH  86400.      1440.0      24.000      1.0000     2.73785E-03
 STRESS PERIOD TIME  86400.      1440.0      24.000      1.0000     2.73785E-03
         TOTAL TIME 2.02176E+07 3.36960E+05  5616.0      234.00     0.64066    


end timestep


start timestep kper="235" kstp="1" mode="normal"

 #Stressperiod Save Options

 BEGIN READING OUTPUT CONTROL FOR STRESS PERIOD 235
      ALL TIME STEPS WILL BE SAVED
      ALL TIME STEPS WILL BE SAVED

 END READING OUTPUT CONTROL FOR STRESS PERIOD 235


 PROCESSING STORAGE PERIOD DATA
 END PROCESSING STORAGE PERIOD DATA


 STRESS PERIOD 235 IS TRANSIENT


 REUSING DRNS FROM LAST STRESS PERIOD

 REUSING RIVS FROM LAST STRESS PERIOD

 REUSING RIVS FROM LAST STRESS PERIOD

 REUSING RCHS FROM LAST STRESS PERIOD
 UBDSV06 SAVING              DRN IN MODEL GWF_1            PACKAGE GWF_1           CONNECTED TO MODEL GWF_1            PACKAGE DRN_SYS1         ON UNIT   1018 AT TIME STEP      1, STRESS PERIOD    235
 UBDSV06 SAVING              RIV IN MODEL GWF_1            PACKAGE GWF_1           CONNECTED TO MODEL GWF_1            PACKAGE RIV_SYS1         ON UNIT   1018 AT TIME STEP      1, STRESS PERIOD    235
 UBDSV06 SAVING              RIV IN MODEL GWF_1            PACKAGE GWF_1           CONNECTED TO MODEL GWF_1            PACKAGE RIV_SYS2         ON UNIT   1018 AT TIME STEP      1, STRESS PERIOD    235

 HEAD WILL BE SAVED ON UNIT 1017 AT END OF TIME STEP    1, STRESS PERIOD  235


  VOLUME BUDGET FOR ENTIRE MODEL AT END OF TIME STEP    1, STRESS PERIOD 235
  ---------------------------------------------------------------------------------------------------

     CUMULATIVE VOLUME      L**3       RATES FOR THIS TIME STEP      L**3/T          PACKAGE NAME    
     ------------------                 ------------------------                     ----------------

           IN:                                      IN:
           ---                                      ---
              STO-SS =      227437.6845                STO-SS =       3.3152E-02     STORAGE                          
                 DRN =           0.0000                   DRN =           0.0000     DRN_SYS1                         
                 RIV =      258490.5090                   RIV =        1275.8268     RIV_SYS1                         
                 RIV =           0.0000                   RIV =           0.0000     RIV_SYS2                         
                 RCH =           0.0000                   RCH =           0.0000     RCH_MSW                          

            TOTAL IN =      485928.1935              TOTAL IN =        1275.8600

          OUT:                                     OUT:
          ----                                     ----
              STO-SS =           0.0000                STO-SS =           0.0000     STORAGE                          
                 DRN =        7690.7436                   DRN =           9.3230     DRN_SYS1                         
                 RIV =      455100.0540                   RIV =        1226.8995     RIV_SYS1                         
                 RIV =       23139.0912                   RIV =          39.6379     RIV_SYS2                         
                 RCH =           0.0000                   RCH =           0.0000     RCH_MSW                          

           TOTAL OUT =      485929.8889             TOTAL OUT =        1275.8603

            IN - OUT =          -1.6954              IN - OUT =      -3.3801E-04

 PERCENT DISCREPANCY =          -0.00     PERCENT DISCREPANCY =          -0.00




         TIME SUMMARY AT END OF TIME STEP    1 IN STRESS PERIOD  235
                    SECONDS     MINUTES      HOURS       DAYS        YEARS
                    -----------------------------------------------------------
   TIME STEP LENGTH  86400.      1440.0      24.000      1.0000     2.73785E-03
 STRESS PERIOD TIME  86400.      1440.0      24.000      1.0000     2.73785E-03
         TOTAL TIME 2.03040E+07 3.38400E+05  5640.0      235.00     0.64339    


end timestep


start timestep kper="236" kstp="1" mode="normal"

 #Stressperiod Save Options

 BEGIN READING OUTPUT CONTROL FOR STRESS PERIOD 236
      ALL TIME STEPS WILL BE SAVED
      ALL TIME STEPS WILL BE SAVED

 END READING OUTPUT CONTROL FOR STRESS PERIOD 236


 PROCESSING STORAGE PERIOD DATA
 END PROCESSING STORAGE PERIOD DATA


 STRESS PERIOD 236 IS TRANSIENT


 REUSING DRNS FROM LAST STRESS PERIOD

 REUSING RIVS FROM LAST STRESS PERIOD

 REUSING RIVS FROM LAST STRESS PERIOD

 REUSING RCHS FROM LAST STRESS PERIOD
 UBDSV06 SAVING              DRN IN MODEL GWF_1            PACKAGE GWF_1           CONNECTED TO MODEL GWF_1            PACKAGE DRN_SYS1         ON UNIT   1018 AT TIME STEP      1, STRESS PERIOD    236
 UBDSV06 SAVING              RIV IN MODEL GWF_1            PACKAGE GWF_1           CONNECTED TO MODEL GWF_1            PACKAGE RIV_SYS1         ON UNIT   1018 AT TIME STEP      1, STRESS PERIOD    236
 UBDSV06 SAVING              RIV IN MODEL GWF_1            PACKAGE GWF_1           CONNECTED TO MODEL GWF_1            PACKAGE RIV_SYS2         ON UNIT   1018 AT TIME STEP      1, STRESS PERIOD    236

 HEAD WILL BE SAVED ON UNIT 1017 AT END OF TIME STEP    1, STRESS PERIOD  236


  VOLUME BUDGET FOR ENTIRE MODEL AT END OF TIME STEP    1, STRESS PERIOD 236
  ---------------------------------------------------------------------------------------------------

     CUMULATIVE VOLUME      L**3       RATES FOR THIS TIME STEP      L**3/T          PACKAGE NAME    
     ------------------                 ------------------------                     ----------------

           IN:                                      IN:
           ---                                      ---
              STO-SS =      227437.7159                STO-SS =       3.1420E-02     STORAGE                          
                 DRN =           0.0000                   DRN =           0.0000     DRN_SYS1                         
                 RIV =      259766.3364                   RIV =        1275.8274     RIV_SYS1                         
                 RIV =           0.0000                   RIV =           0.0000     RIV_SYS2                         
                 RCH =           0.0000                   RCH =           0.0000     RCH_MSW                          

            TOTAL IN =      487204.0523              TOTAL IN =        1275.8588

          OUT:                                     OUT:
          ----                                     ----
              STO-SS =           0.0000                STO-SS =           0.0000     STORAGE                          
                 DRN =        7700.0666                   DRN =           9.3229     DRN_SYS1                         
                 RIV =      456326.9525                   RIV =        1226.8984     RIV_SYS1                         
                 RIV =       23178.7290                   RIV =          39.6378     RIV_SYS2                         
                 RCH =           0.0000                   RCH =           0.0000     RCH_MSW                          

           TOTAL OUT =      487205.7480             TOTAL OUT =        1275.8591

            IN - OUT =          -1.6957              IN - OUT =      -3.2033E-04

 PERCENT DISCREPANCY =          -0.00     PERCENT DISCREPANCY =          -0.00




         TIME SUMMARY AT END OF TIME STEP    1 IN STRESS PERIOD  236
                    SECONDS     MINUTES      HOURS       DAYS        YEARS
                    -----------------------------------------------------------
   TIME STEP LENGTH  86400.      1440.0      24.000      1.0000     2.73785E-03
 STRESS PERIOD TIME  86400.      1440.0      24.000      1.0000     2.73785E-03
         TOTAL TIME 2.03904E+07 3.39840E+05  5664.0      236.00     0.64613    


end timestep


start timestep kper="237" kstp="1" mode="normal"

 #Stressperiod Save Options

 BEGIN READING OUTPUT CONTROL FOR STRESS PERIOD 237
      ALL TIME STEPS WILL BE SAVED
      ALL TIME STEPS WILL BE SAVED

 END READING OUTPUT CONTROL FOR STRESS PERIOD 237


 PROCESSING STORAGE PERIOD DATA
 END PROCESSING STORAGE PERIOD DATA


 STRESS PERIOD 237 IS TRANSIENT


 REUSING DRNS FROM LAST STRESS PERIOD

 REUSING RIVS FROM LAST STRESS PERIOD

 REUSING RIVS FROM LAST STRESS PERIOD

 REUSING RCHS FROM LAST STRESS PERIOD
 UBDSV06 SAVING              DRN IN MODEL GWF_1            PACKAGE GWF_1           CONNECTED TO MODEL GWF_1            PACKAGE DRN_SYS1         ON UNIT   1018 AT TIME STEP      1, STRESS PERIOD    237
 UBDSV06 SAVING              RIV IN MODEL GWF_1            PACKAGE GWF_1           CONNECTED TO MODEL GWF_1            PACKAGE RIV_SYS1         ON UNIT   1018 AT TIME STEP      1, STRESS PERIOD    237
 UBDSV06 SAVING              RIV IN MODEL GWF_1            PACKAGE GWF_1           CONNECTED TO MODEL GWF_1            PACKAGE RIV_SYS2         ON UNIT   1018 AT TIME STEP      1, STRESS PERIOD    237

 HEAD WILL BE SAVED ON UNIT 1017 AT END OF TIME STEP    1, STRESS PERIOD  237


  VOLUME BUDGET FOR ENTIRE MODEL AT END OF TIME STEP    1, STRESS PERIOD 237
  ---------------------------------------------------------------------------------------------------

     CUMULATIVE VOLUME      L**3       RATES FOR THIS TIME STEP      L**3/T          PACKAGE NAME    
     ------------------                 ------------------------                     ----------------

           IN:                                      IN:
           ---                                      ---
              STO-SS =      227437.7457                STO-SS =       2.9778E-02     STORAGE                          
                 DRN =           0.0000                   DRN =           0.0000     DRN_SYS1                         
                 RIV =      261042.1643                   RIV =        1275.8279     RIV_SYS1                         
                 RIV =           0.0000                   RIV =           0.0000     RIV_SYS2                         
                 RCH =           0.0000                   RCH =           0.0000     RCH_MSW                          

            TOTAL IN =      488479.9100              TOTAL IN =        1275.8577

          OUT:                                     OUT:
          ----                                     ----
              STO-SS =           0.0000                STO-SS =           0.0000     STORAGE                          
                 DRN =        7709.3895                   DRN =           9.3229     DRN_SYS1                         
                 RIV =      457553.8499                   RIV =        1226.8975     RIV_SYS1                         
                 RIV =       23218.3666                   RIV =          39.6377     RIV_SYS2                         
                 RCH =           0.0000                   RCH =           0.0000     RCH_MSW                          

           TOTAL OUT =      488481.6060             TOTAL OUT =        1275.8580

            IN - OUT =          -1.6960              IN - OUT =      -3.0359E-04

 PERCENT DISCREPANCY =          -0.00     PERCENT DISCREPANCY =          -0.00




         TIME SUMMARY AT END OF TIME STEP    1 IN STRESS PERIOD  237
                    SECONDS     MINUTES      HOURS       DAYS        YEARS
                    -----------------------------------------------------------
   TIME STEP LENGTH  86400.      1440.0      24.000      1.0000     2.73785E-03
 STRESS PERIOD TIME  86400.      1440.0      24.000      1.0000     2.73785E-03
         TOTAL TIME 2.04768E+07 3.41280E+05  5688.0      237.00     0.64887    


end timestep


start timestep kper="238" kstp="1" mode="normal"

 #Stressperiod Save Options

 BEGIN READING OUTPUT CONTROL FOR STRESS PERIOD 238
      ALL TIME STEPS WILL BE SAVED
      ALL TIME STEPS WILL BE SAVED

 END READING OUTPUT CONTROL FOR STRESS PERIOD 238


 PROCESSING STORAGE PERIOD DATA
 END PROCESSING STORAGE PERIOD DATA


 STRESS PERIOD 238 IS TRANSIENT


 REUSING DRNS FROM LAST STRESS PERIOD

 REUSING RIVS FROM LAST STRESS PERIOD

 REUSING RIVS FROM LAST STRESS PERIOD

 REUSING RCHS FROM LAST STRESS PERIOD
 UBDSV06 SAVING              DRN IN MODEL GWF_1            PACKAGE GWF_1           CONNECTED TO MODEL GWF_1            PACKAGE DRN_SYS1         ON UNIT   1018 AT TIME STEP      1, STRESS PERIOD    238
 UBDSV06 SAVING              RIV IN MODEL GWF_1            PACKAGE GWF_1           CONNECTED TO MODEL GWF_1            PACKAGE RIV_SYS1         ON UNIT   1018 AT TIME STEP      1, STRESS PERIOD    238
 UBDSV06 SAVING              RIV IN MODEL GWF_1            PACKAGE GWF_1           CONNECTED TO MODEL GWF_1            PACKAGE RIV_SYS2         ON UNIT   1018 AT TIME STEP      1, STRESS PERIOD    238

 HEAD WILL BE SAVED ON UNIT 1017 AT END OF TIME STEP    1, STRESS PERIOD  238


  VOLUME BUDGET FOR ENTIRE MODEL AT END OF TIME STEP    1, STRESS PERIOD 238
  ---------------------------------------------------------------------------------------------------

     CUMULATIVE VOLUME      L**3       RATES FOR THIS TIME STEP      L**3/T          PACKAGE NAME    
     ------------------                 ------------------------                     ----------------

           IN:                                      IN:
           ---                                      ---
              STO-SS =      227437.7739                STO-SS =       2.8221E-02     STORAGE                          
                 DRN =           0.0000                   DRN =           0.0000     DRN_SYS1                         
                 RIV =      262317.9928                   RIV =        1275.8284     RIV_SYS1                         
                 RIV =           0.0000                   RIV =           0.0000     RIV_SYS2                         
                 RCH =           0.0000                   RCH =           0.0000     RCH_MSW                          

            TOTAL IN =      489755.7666              TOTAL IN =        1275.8566

          OUT:                                     OUT:
          ----                                     ----
              STO-SS =           0.0000                STO-SS =           0.0000     STORAGE                          
                 DRN =        7718.7123                   DRN =           9.3228     DRN_SYS1                         
                 RIV =      458780.7465                   RIV =        1226.8965     RIV_SYS1                         
                 RIV =       23258.0042                   RIV =          39.6376     RIV_SYS2                         
                 RCH =           0.0000                   RCH =           0.0000     RCH_MSW                          

           TOTAL OUT =      489757.4630             TOTAL OUT =        1275.8569

            IN - OUT =          -1.6963              IN - OUT =      -2.8771E-04

 PERCENT DISCREPANCY =          -0.00     PERCENT DISCREPANCY =          -0.00




         TIME SUMMARY AT END OF TIME STEP    1 IN STRESS PERIOD  238
                    SECONDS     MINUTES      HOURS       DAYS        YEARS
                    -----------------------------------------------------------
   TIME STEP LENGTH  86400.      1440.0      24.000      1.0000     2.73785E-03
 STRESS PERIOD TIME  86400.      1440.0      24.000      1.0000     2.73785E-03
         TOTAL TIME 2.05632E+07 3.42720E+05  5712.0      238.00     0.65161    


end timestep


start timestep kper="239" kstp="1" mode="normal"

 #Stressperiod Save Options

 BEGIN READING OUTPUT CONTROL FOR STRESS PERIOD 239
      ALL TIME STEPS WILL BE SAVED
      ALL TIME STEPS WILL BE SAVED

 END READING OUTPUT CONTROL FOR STRESS PERIOD 239


 PROCESSING STORAGE PERIOD DATA
 END PROCESSING STORAGE PERIOD DATA


 STRESS PERIOD 239 IS TRANSIENT


 REUSING DRNS FROM LAST STRESS PERIOD

 REUSING RIVS FROM LAST STRESS PERIOD

 REUSING RIVS FROM LAST STRESS PERIOD

 REUSING RCHS FROM LAST STRESS PERIOD
 UBDSV06 SAVING              DRN IN MODEL GWF_1            PACKAGE GWF_1           CONNECTED TO MODEL GWF_1            PACKAGE DRN_SYS1         ON UNIT   1018 AT TIME STEP      1, STRESS PERIOD    239
 UBDSV06 SAVING              RIV IN MODEL GWF_1            PACKAGE GWF_1           CONNECTED TO MODEL GWF_1            PACKAGE RIV_SYS1         ON UNIT   1018 AT TIME STEP      1, STRESS PERIOD    239
 UBDSV06 SAVING              RIV IN MODEL GWF_1            PACKAGE GWF_1           CONNECTED TO MODEL GWF_1            PACKAGE RIV_SYS2         ON UNIT   1018 AT TIME STEP      1, STRESS PERIOD    239

 HEAD WILL BE SAVED ON UNIT 1017 AT END OF TIME STEP    1, STRESS PERIOD  239


  VOLUME BUDGET FOR ENTIRE MODEL AT END OF TIME STEP    1, STRESS PERIOD 239
  ---------------------------------------------------------------------------------------------------

     CUMULATIVE VOLUME      L**3       RATES FOR THIS TIME STEP      L**3/T          PACKAGE NAME    
     ------------------                 ------------------------                     ----------------

           IN:                                      IN:
           ---                                      ---
              STO-SS =      227437.8006                STO-SS =       2.6746E-02     STORAGE                          
                 DRN =           0.0000                   DRN =           0.0000     DRN_SYS1                         
                 RIV =      263593.8217                   RIV =        1275.8289     RIV_SYS1                         
                 RIV =           0.0000                   RIV =           0.0000     RIV_SYS2                         
                 RCH =           0.0000                   RCH =           0.0000     RCH_MSW                          

            TOTAL IN =      491031.6223              TOTAL IN =        1275.8556

          OUT:                                     OUT:
          ----                                     ----
              STO-SS =           0.0000                STO-SS =           0.0000     STORAGE                          
                 DRN =        7728.0351                   DRN =           9.3228     DRN_SYS1                         
                 RIV =      460007.6421                   RIV =        1226.8957     RIV_SYS1                         
                 RIV =       23297.6417                   RIV =          39.6375     RIV_SYS2                         
                 RCH =           0.0000                   RCH =           0.0000     RCH_MSW                          

           TOTAL OUT =      491033.3189             TOTAL OUT =        1275.8559

            IN - OUT =          -1.6966              IN - OUT =      -2.7267E-04

 PERCENT DISCREPANCY =          -0.00     PERCENT DISCREPANCY =          -0.00




         TIME SUMMARY AT END OF TIME STEP    1 IN STRESS PERIOD  239
                    SECONDS     MINUTES      HOURS       DAYS        YEARS
                    -----------------------------------------------------------
   TIME STEP LENGTH  86400.      1440.0      24.000      1.0000     2.73785E-03
 STRESS PERIOD TIME  86400.      1440.0      24.000      1.0000     2.73785E-03
         TOTAL TIME 2.06496E+07 3.44160E+05  5736.0      239.00     0.65435    


end timestep


start timestep kper="240" kstp="1" mode="normal"

 #Stressperiod Save Options

 BEGIN READING OUTPUT CONTROL FOR STRESS PERIOD 240
      ALL TIME STEPS WILL BE SAVED
      ALL TIME STEPS WILL BE SAVED

 END READING OUTPUT CONTROL FOR STRESS PERIOD 240


 PROCESSING STORAGE PERIOD DATA
 END PROCESSING STORAGE PERIOD DATA


 STRESS PERIOD 240 IS TRANSIENT


 REUSING DRNS FROM LAST STRESS PERIOD

 REUSING RIVS FROM LAST STRESS PERIOD

 REUSING RIVS FROM LAST STRESS PERIOD

 REUSING RCHS FROM LAST STRESS PERIOD
 UBDSV06 SAVING              DRN IN MODEL GWF_1            PACKAGE GWF_1           CONNECTED TO MODEL GWF_1            PACKAGE DRN_SYS1         ON UNIT   1018 AT TIME STEP      1, STRESS PERIOD    240
 UBDSV06 SAVING              RIV IN MODEL GWF_1            PACKAGE GWF_1           CONNECTED TO MODEL GWF_1            PACKAGE RIV_SYS1         ON UNIT   1018 AT TIME STEP      1, STRESS PERIOD    240
 UBDSV06 SAVING              RIV IN MODEL GWF_1            PACKAGE GWF_1           CONNECTED TO MODEL GWF_1            PACKAGE RIV_SYS2         ON UNIT   1018 AT TIME STEP      1, STRESS PERIOD    240

 HEAD WILL BE SAVED ON UNIT 1017 AT END OF TIME STEP    1, STRESS PERIOD  240


  VOLUME BUDGET FOR ENTIRE MODEL AT END OF TIME STEP    1, STRESS PERIOD 240
  ---------------------------------------------------------------------------------------------------

     CUMULATIVE VOLUME      L**3       RATES FOR THIS TIME STEP      L**3/T          PACKAGE NAME    
     ------------------                 ------------------------                     ----------------

           IN:                                      IN:
           ---                                      ---
              STO-SS =      227437.8260                STO-SS =       2.5348E-02     STORAGE                          
                 DRN =           0.0000                   DRN =           0.0000     DRN_SYS1                         
                 RIV =      264869.6510                   RIV =        1275.8294     RIV_SYS1                         
                 RIV =           0.0000                   RIV =           0.0000     RIV_SYS2                         
                 RCH =           0.0000                   RCH =           0.0000     RCH_MSW                          

            TOTAL IN =      492307.4770              TOTAL IN =        1275.8547

          OUT:                                     OUT:
          ----                                     ----
              STO-SS =           0.0000                STO-SS =           0.0000     STORAGE                          
                 DRN =        7737.3578                   DRN =           9.3227     DRN_SYS1                         
                 RIV =      461234.5370                   RIV =        1226.8948     RIV_SYS1                         
                 RIV =       23337.2790                   RIV =          39.6374     RIV_SYS2                         
                 RCH =           0.0000                   RCH =           0.0000     RCH_MSW                          

           TOTAL OUT =      492309.1738             TOTAL OUT =        1275.8550

            IN - OUT =          -1.6968              IN - OUT =      -2.5842E-04

 PERCENT DISCREPANCY =          -0.00     PERCENT DISCREPANCY =          -0.00




         TIME SUMMARY AT END OF TIME STEP    1 IN STRESS PERIOD  240
                    SECONDS     MINUTES      HOURS       DAYS        YEARS
                    -----------------------------------------------------------
   TIME STEP LENGTH  86400.      1440.0      24.000      1.0000     2.73785E-03
 STRESS PERIOD TIME  86400.      1440.0      24.000      1.0000     2.73785E-03
         TOTAL TIME 2.07360E+07 3.45600E+05  5760.0      240.00     0.65708    


end timestep


start timestep kper="241" kstp="1" mode="normal"

 #Stressperiod Save Options

 BEGIN READING OUTPUT CONTROL FOR STRESS PERIOD 241
      ALL TIME STEPS WILL BE SAVED
      ALL TIME STEPS WILL BE SAVED

 END READING OUTPUT CONTROL FOR STRESS PERIOD 241


 PROCESSING STORAGE PERIOD DATA
 END PROCESSING STORAGE PERIOD DATA


 STRESS PERIOD 241 IS TRANSIENT


 REUSING DRNS FROM LAST STRESS PERIOD

 REUSING RIVS FROM LAST STRESS PERIOD

 REUSING RIVS FROM LAST STRESS PERIOD

 REUSING RCHS FROM LAST STRESS PERIOD
 UBDSV06 SAVING              DRN IN MODEL GWF_1            PACKAGE GWF_1           CONNECTED TO MODEL GWF_1            PACKAGE DRN_SYS1         ON UNIT   1018 AT TIME STEP      1, STRESS PERIOD    241
 UBDSV06 SAVING              RIV IN MODEL GWF_1            PACKAGE GWF_1           CONNECTED TO MODEL GWF_1            PACKAGE RIV_SYS1         ON UNIT   1018 AT TIME STEP      1, STRESS PERIOD    241
 UBDSV06 SAVING              RIV IN MODEL GWF_1            PACKAGE GWF_1           CONNECTED TO MODEL GWF_1            PACKAGE RIV_SYS2         ON UNIT   1018 AT TIME STEP      1, STRESS PERIOD    241

 HEAD WILL BE SAVED ON UNIT 1017 AT END OF TIME STEP    1, STRESS PERIOD  241


  VOLUME BUDGET FOR ENTIRE MODEL AT END OF TIME STEP    1, STRESS PERIOD 241
  ---------------------------------------------------------------------------------------------------

     CUMULATIVE VOLUME      L**3       RATES FOR THIS TIME STEP      L**3/T          PACKAGE NAME    
     ------------------                 ------------------------                     ----------------

           IN:                                      IN:
           ---                                      ---
              STO-SS =      227437.8500                STO-SS =       2.4024E-02     STORAGE                          
                 DRN =           0.0000                   DRN =           0.0000     DRN_SYS1                         
                 RIV =      266145.4808                   RIV =        1275.8298     RIV_SYS1                         
                 RIV =           0.0000                   RIV =           0.0000     RIV_SYS2                         
                 RCH =           0.0000                   RCH =           0.0000     RCH_MSW                          

            TOTAL IN =      493583.3308              TOTAL IN =        1275.8538

          OUT:                                     OUT:
          ----                                     ----
              STO-SS =           0.0000                STO-SS =           0.0000     STORAGE                          
                 DRN =        7746.6805                   DRN =           9.3227     DRN_SYS1                         
                 RIV =      462461.4310                   RIV =        1226.8941     RIV_SYS1                         
                 RIV =       23376.9163                   RIV =          39.6373     RIV_SYS2                         
                 RCH =           0.0000                   RCH =           0.0000     RCH_MSW                          

           TOTAL OUT =      493585.0279             TOTAL OUT =        1275.8540

            IN - OUT =          -1.6971              IN - OUT =      -2.4491E-04

 PERCENT DISCREPANCY =          -0.00     PERCENT DISCREPANCY =          -0.00




         TIME SUMMARY AT END OF TIME STEP    1 IN STRESS PERIOD  241
                    SECONDS     MINUTES      HOURS       DAYS        YEARS
                    -----------------------------------------------------------
   TIME STEP LENGTH  86400.      1440.0      24.000      1.0000     2.73785E-03
 STRESS PERIOD TIME  86400.      1440.0      24.000      1.0000     2.73785E-03
         TOTAL TIME 2.08224E+07 3.47040E+05  5784.0      241.00     0.65982    


end timestep


start timestep kper="242" kstp="1" mode="normal"

 #Stressperiod Save Options

 BEGIN READING OUTPUT CONTROL FOR STRESS PERIOD 242
      ALL TIME STEPS WILL BE SAVED
      ALL TIME STEPS WILL BE SAVED

 END READING OUTPUT CONTROL FOR STRESS PERIOD 242


 PROCESSING STORAGE PERIOD DATA
 END PROCESSING STORAGE PERIOD DATA


 STRESS PERIOD 242 IS TRANSIENT


 REUSING DRNS FROM LAST STRESS PERIOD

 REUSING RIVS FROM LAST STRESS PERIOD

 REUSING RIVS FROM LAST STRESS PERIOD

 REUSING RCHS FROM LAST STRESS PERIOD
 UBDSV06 SAVING              DRN IN MODEL GWF_1            PACKAGE GWF_1           CONNECTED TO MODEL GWF_1            PACKAGE DRN_SYS1         ON UNIT   1018 AT TIME STEP      1, STRESS PERIOD    242
 UBDSV06 SAVING              RIV IN MODEL GWF_1            PACKAGE GWF_1           CONNECTED TO MODEL GWF_1            PACKAGE RIV_SYS1         ON UNIT   1018 AT TIME STEP      1, STRESS PERIOD    242
 UBDSV06 SAVING              RIV IN MODEL GWF_1            PACKAGE GWF_1           CONNECTED TO MODEL GWF_1            PACKAGE RIV_SYS2         ON UNIT   1018 AT TIME STEP      1, STRESS PERIOD    242

 HEAD WILL BE SAVED ON UNIT 1017 AT END OF TIME STEP    1, STRESS PERIOD  242


  VOLUME BUDGET FOR ENTIRE MODEL AT END OF TIME STEP    1, STRESS PERIOD 242
  ---------------------------------------------------------------------------------------------------

     CUMULATIVE VOLUME      L**3       RATES FOR THIS TIME STEP      L**3/T          PACKAGE NAME    
     ------------------                 ------------------------                     ----------------

           IN:                                      IN:
           ---                                      ---
              STO-SS =      227437.8728                STO-SS =       2.2768E-02     STORAGE                          
                 DRN =           0.0000                   DRN =           0.0000     DRN_SYS1                         
                 RIV =      267421.3110                   RIV =        1275.8302     RIV_SYS1                         
                 RIV =           0.0000                   RIV =           0.0000     RIV_SYS2                         
                 RCH =           0.0000                   RCH =           0.0000     RCH_MSW                          

            TOTAL IN =      494859.1837              TOTAL IN =        1275.8529

          OUT:                                     OUT:
          ----                                     ----
              STO-SS =           0.0000                STO-SS =           0.0000     STORAGE                          
                 DRN =        7756.0031                   DRN =           9.3227     DRN_SYS1                         
                 RIV =      463688.3243                   RIV =        1226.8933     RIV_SYS1                         
                 RIV =       23416.5536                   RIV =          39.6372     RIV_SYS2                         
                 RCH =           0.0000                   RCH =           0.0000     RCH_MSW                          

           TOTAL OUT =      494860.8811             TOTAL OUT =        1275.8532

            IN - OUT =          -1.6973              IN - OUT =      -2.3210E-04

 PERCENT DISCREPANCY =          -0.00     PERCENT DISCREPANCY =          -0.00




         TIME SUMMARY AT END OF TIME STEP    1 IN STRESS PERIOD  242
                    SECONDS     MINUTES      HOURS       DAYS        YEARS
                    -----------------------------------------------------------
   TIME STEP LENGTH  86400.      1440.0      24.000      1.0000     2.73785E-03
 STRESS PERIOD TIME  86400.      1440.0      24.000      1.0000     2.73785E-03
         TOTAL TIME 2.09088E+07 3.48480E+05  5808.0      242.00     0.66256    


end timestep


start timestep kper="243" kstp="1" mode="normal"

 #Stressperiod Save Options

 BEGIN READING OUTPUT CONTROL FOR STRESS PERIOD 243
      ALL TIME STEPS WILL BE SAVED
      ALL TIME STEPS WILL BE SAVED

 END READING OUTPUT CONTROL FOR STRESS PERIOD 243


 PROCESSING STORAGE PERIOD DATA
 END PROCESSING STORAGE PERIOD DATA


 STRESS PERIOD 243 IS TRANSIENT


 REUSING DRNS FROM LAST STRESS PERIOD

 REUSING RIVS FROM LAST STRESS PERIOD

 REUSING RIVS FROM LAST STRESS PERIOD

 REUSING RCHS FROM LAST STRESS PERIOD
 UBDSV06 SAVING              DRN IN MODEL GWF_1            PACKAGE GWF_1           CONNECTED TO MODEL GWF_1            PACKAGE DRN_SYS1         ON UNIT   1018 AT TIME STEP      1, STRESS PERIOD    243
 UBDSV06 SAVING              RIV IN MODEL GWF_1            PACKAGE GWF_1           CONNECTED TO MODEL GWF_1            PACKAGE RIV_SYS1         ON UNIT   1018 AT TIME STEP      1, STRESS PERIOD    243
 UBDSV06 SAVING              RIV IN MODEL GWF_1            PACKAGE GWF_1           CONNECTED TO MODEL GWF_1            PACKAGE RIV_SYS2         ON UNIT   1018 AT TIME STEP      1, STRESS PERIOD    243

 HEAD WILL BE SAVED ON UNIT 1017 AT END OF TIME STEP    1, STRESS PERIOD  243


  VOLUME BUDGET FOR ENTIRE MODEL AT END OF TIME STEP    1, STRESS PERIOD 243
  ---------------------------------------------------------------------------------------------------

     CUMULATIVE VOLUME      L**3       RATES FOR THIS TIME STEP      L**3/T          PACKAGE NAME    
     ------------------                 ------------------------                     ----------------

           IN:                                      IN:
           ---                                      ---
              STO-SS =      227437.8943                STO-SS =       2.1578E-02     STORAGE                          
                 DRN =           0.0000                   DRN =           0.0000     DRN_SYS1                         
                 RIV =      268697.1415                   RIV =        1275.8306     RIV_SYS1                         
                 RIV =           0.0000                   RIV =           0.0000     RIV_SYS2                         
                 RCH =           0.0000                   RCH =           0.0000     RCH_MSW                          

            TOTAL IN =      496135.0359              TOTAL IN =        1275.8521

          OUT:                                     OUT:
          ----                                     ----
              STO-SS =           0.0000                STO-SS =           0.0000     STORAGE                          
                 DRN =        7765.3258                   DRN =           9.3226     DRN_SYS1                         
                 RIV =      464915.2169                   RIV =        1226.8926     RIV_SYS1                         
                 RIV =       23456.1907                   RIV =          39.6371     RIV_SYS2                         
                 RCH =           0.0000                   RCH =           0.0000     RCH_MSW                          

           TOTAL OUT =      496136.7334             TOTAL OUT =        1275.8524

            IN - OUT =          -1.6975              IN - OUT =      -2.1997E-04

 PERCENT DISCREPANCY =          -0.00     PERCENT DISCREPANCY =          -0.00




         TIME SUMMARY AT END OF TIME STEP    1 IN STRESS PERIOD  243
                    SECONDS     MINUTES      HOURS       DAYS        YEARS
                    -----------------------------------------------------------
   TIME STEP LENGTH  86400.      1440.0      24.000      1.0000     2.73785E-03
 STRESS PERIOD TIME  86400.      1440.0      24.000      1.0000     2.73785E-03
         TOTAL TIME 2.09952E+07 3.49920E+05  5832.0      243.00     0.66530    


end timestep


start timestep kper="244" kstp="1" mode="normal"

 #Stressperiod Save Options

 BEGIN READING OUTPUT CONTROL FOR STRESS PERIOD 244
      ALL TIME STEPS WILL BE SAVED
      ALL TIME STEPS WILL BE SAVED

 END READING OUTPUT CONTROL FOR STRESS PERIOD 244


 PROCESSING STORAGE PERIOD DATA
 END PROCESSING STORAGE PERIOD DATA


 STRESS PERIOD 244 IS TRANSIENT


 REUSING DRNS FROM LAST STRESS PERIOD

 REUSING RIVS FROM LAST STRESS PERIOD

 REUSING RIVS FROM LAST STRESS PERIOD

 REUSING RCHS FROM LAST STRESS PERIOD
 UBDSV06 SAVING              DRN IN MODEL GWF_1            PACKAGE GWF_1           CONNECTED TO MODEL GWF_1            PACKAGE DRN_SYS1         ON UNIT   1018 AT TIME STEP      1, STRESS PERIOD    244
 UBDSV06 SAVING              RIV IN MODEL GWF_1            PACKAGE GWF_1           CONNECTED TO MODEL GWF_1            PACKAGE RIV_SYS1         ON UNIT   1018 AT TIME STEP      1, STRESS PERIOD    244
 UBDSV06 SAVING              RIV IN MODEL GWF_1            PACKAGE GWF_1           CONNECTED TO MODEL GWF_1            PACKAGE RIV_SYS2         ON UNIT   1018 AT TIME STEP      1, STRESS PERIOD    244

 HEAD WILL BE SAVED ON UNIT 1017 AT END OF TIME STEP    1, STRESS PERIOD  244


  VOLUME BUDGET FOR ENTIRE MODEL AT END OF TIME STEP    1, STRESS PERIOD 244
  ---------------------------------------------------------------------------------------------------

     CUMULATIVE VOLUME      L**3       RATES FOR THIS TIME STEP      L**3/T          PACKAGE NAME    
     ------------------                 ------------------------                     ----------------

           IN:                                      IN:
           ---                                      ---
              STO-SS =      227437.9148                STO-SS =       2.0450E-02     STORAGE                          
                 DRN =           0.0000                   DRN =           0.0000     DRN_SYS1                         
                 RIV =      269972.9724                   RIV =        1275.8309     RIV_SYS1                         
                 RIV =           0.0000                   RIV =           0.0000     RIV_SYS2                         
                 RCH =           0.0000                   RCH =           0.0000     RCH_MSW                          

            TOTAL IN =      497410.8872              TOTAL IN =        1275.8514

          OUT:                                     OUT:
          ----                                     ----
              STO-SS =           0.0000                STO-SS =           0.0000     STORAGE                          
                 DRN =        7774.6483                   DRN =           9.3226     DRN_SYS1                         
                 RIV =      466142.1089                   RIV =        1226.8919     RIV_SYS1                         
                 RIV =       23495.8278                   RIV =          39.6371     RIV_SYS2                         
                 RCH =           0.0000                   RCH =           0.0000     RCH_MSW                          

           TOTAL OUT =      497412.5850             TOTAL OUT =        1275.8516

            IN - OUT =          -1.6978              IN - OUT =      -2.0847E-04

 PERCENT DISCREPANCY =          -0.00     PERCENT DISCREPANCY =          -0.00




         TIME SUMMARY AT END OF TIME STEP    1 IN STRESS PERIOD  244
                    SECONDS     MINUTES      HOURS       DAYS        YEARS
                    -----------------------------------------------------------
   TIME STEP LENGTH  86400.      1440.0      24.000      1.0000     2.73785E-03
 STRESS PERIOD TIME  86400.      1440.0      24.000      1.0000     2.73785E-03
         TOTAL TIME 2.10816E+07 3.51360E+05  5856.0      244.00     0.66804    


end timestep


start timestep kper="245" kstp="1" mode="normal"

 #Stressperiod Save Options

 BEGIN READING OUTPUT CONTROL FOR STRESS PERIOD 245
      ALL TIME STEPS WILL BE SAVED
      ALL TIME STEPS WILL BE SAVED

 END READING OUTPUT CONTROL FOR STRESS PERIOD 245


 PROCESSING STORAGE PERIOD DATA
 END PROCESSING STORAGE PERIOD DATA


 STRESS PERIOD 245 IS TRANSIENT


 REUSING DRNS FROM LAST STRESS PERIOD

 REUSING RIVS FROM LAST STRESS PERIOD

 REUSING RIVS FROM LAST STRESS PERIOD

 REUSING RCHS FROM LAST STRESS PERIOD
 UBDSV06 SAVING              DRN IN MODEL GWF_1            PACKAGE GWF_1           CONNECTED TO MODEL GWF_1            PACKAGE DRN_SYS1         ON UNIT   1018 AT TIME STEP      1, STRESS PERIOD    245
 UBDSV06 SAVING              RIV IN MODEL GWF_1            PACKAGE GWF_1           CONNECTED TO MODEL GWF_1            PACKAGE RIV_SYS1         ON UNIT   1018 AT TIME STEP      1, STRESS PERIOD    245
 UBDSV06 SAVING              RIV IN MODEL GWF_1            PACKAGE GWF_1           CONNECTED TO MODEL GWF_1            PACKAGE RIV_SYS2         ON UNIT   1018 AT TIME STEP      1, STRESS PERIOD    245

 HEAD WILL BE SAVED ON UNIT 1017 AT END OF TIME STEP    1, STRESS PERIOD  245


  VOLUME BUDGET FOR ENTIRE MODEL AT END OF TIME STEP    1, STRESS PERIOD 245
  ---------------------------------------------------------------------------------------------------

     CUMULATIVE VOLUME      L**3       RATES FOR THIS TIME STEP      L**3/T          PACKAGE NAME    
     ------------------                 ------------------------                     ----------------

           IN:                                      IN:
           ---                                      ---
              STO-SS =      227437.9342                STO-SS =       1.9382E-02     STORAGE                          
                 DRN =           0.0000                   DRN =           0.0000     DRN_SYS1                         
                 RIV =      271248.8037                   RIV =        1275.8313     RIV_SYS1                         
                 RIV =           0.0000                   RIV =           0.0000     RIV_SYS2                         
                 RCH =           0.0000                   RCH =           0.0000     RCH_MSW                          

            TOTAL IN =      498686.7379              TOTAL IN =        1275.8506

          OUT:                                     OUT:
          ----                                     ----
              STO-SS =           0.0000                STO-SS =           0.0000     STORAGE                          
                 DRN =        7783.9709                   DRN =           9.3225     DRN_SYS1                         
                 RIV =      467369.0002                   RIV =        1226.8913     RIV_SYS1                         
                 RIV =       23535.4648                   RIV =          39.6370     RIV_SYS2                         
                 RCH =           0.0000                   RCH =           0.0000     RCH_MSW                          

           TOTAL OUT =      498688.4358             TOTAL OUT =        1275.8508

            IN - OUT =          -1.6980              IN - OUT =      -1.9757E-04

 PERCENT DISCREPANCY =          -0.00     PERCENT DISCREPANCY =          -0.00




         TIME SUMMARY AT END OF TIME STEP    1 IN STRESS PERIOD  245
                    SECONDS     MINUTES      HOURS       DAYS        YEARS
                    -----------------------------------------------------------
   TIME STEP LENGTH  86400.      1440.0      24.000      1.0000     2.73785E-03
 STRESS PERIOD TIME  86400.      1440.0      24.000      1.0000     2.73785E-03
         TOTAL TIME 2.11680E+07 3.52800E+05  5880.0      245.00     0.67077    


end timestep


start timestep kper="246" kstp="1" mode="normal"

 #Stressperiod Save Options

 BEGIN READING OUTPUT CONTROL FOR STRESS PERIOD 246
      ALL TIME STEPS WILL BE SAVED
      ALL TIME STEPS WILL BE SAVED

 END READING OUTPUT CONTROL FOR STRESS PERIOD 246


 PROCESSING STORAGE PERIOD DATA
 END PROCESSING STORAGE PERIOD DATA


 STRESS PERIOD 246 IS TRANSIENT


 REUSING DRNS FROM LAST STRESS PERIOD

 REUSING RIVS FROM LAST STRESS PERIOD

 REUSING RIVS FROM LAST STRESS PERIOD

 REUSING RCHS FROM LAST STRESS PERIOD
 UBDSV06 SAVING              DRN IN MODEL GWF_1            PACKAGE GWF_1           CONNECTED TO MODEL GWF_1            PACKAGE DRN_SYS1         ON UNIT   1018 AT TIME STEP      1, STRESS PERIOD    246
 UBDSV06 SAVING              RIV IN MODEL GWF_1            PACKAGE GWF_1           CONNECTED TO MODEL GWF_1            PACKAGE RIV_SYS1         ON UNIT   1018 AT TIME STEP      1, STRESS PERIOD    246
 UBDSV06 SAVING              RIV IN MODEL GWF_1            PACKAGE GWF_1           CONNECTED TO MODEL GWF_1            PACKAGE RIV_SYS2         ON UNIT   1018 AT TIME STEP      1, STRESS PERIOD    246

 HEAD WILL BE SAVED ON UNIT 1017 AT END OF TIME STEP    1, STRESS PERIOD  246


  VOLUME BUDGET FOR ENTIRE MODEL AT END OF TIME STEP    1, STRESS PERIOD 246
  ---------------------------------------------------------------------------------------------------

     CUMULATIVE VOLUME      L**3       RATES FOR THIS TIME STEP      L**3/T          PACKAGE NAME    
     ------------------                 ------------------------                     ----------------

           IN:                                      IN:
           ---                                      ---
              STO-SS =      227437.9525                STO-SS =       1.8369E-02     STORAGE                          
                 DRN =           0.0000                   DRN =           0.0000     DRN_SYS1                         
                 RIV =      272524.6353                   RIV =        1275.8316     RIV_SYS1                         
                 RIV =           0.0000                   RIV =           0.0000     RIV_SYS2                         
                 RCH =           0.0000                   RCH =           0.0000     RCH_MSW                          

            TOTAL IN =      499962.5878              TOTAL IN =        1275.8500

          OUT:                                     OUT:
          ----                                     ----
              STO-SS =           0.0000                STO-SS =           0.0000     STORAGE                          
                 DRN =        7793.2934                   DRN =           9.3225     DRN_SYS1                         
                 RIV =      468595.8909                   RIV =        1226.8907     RIV_SYS1                         
                 RIV =       23575.1017                   RIV =          39.6369     RIV_SYS2                         
                 RCH =           0.0000                   RCH =           0.0000     RCH_MSW                          

           TOTAL OUT =      499964.2860             TOTAL OUT =        1275.8501

            IN - OUT =          -1.6981              IN - OUT =      -1.8724E-04

 PERCENT DISCREPANCY =          -0.00     PERCENT DISCREPANCY =          -0.00




         TIME SUMMARY AT END OF TIME STEP    1 IN STRESS PERIOD  246
                    SECONDS     MINUTES      HOURS       DAYS        YEARS
                    -----------------------------------------------------------
   TIME STEP LENGTH  86400.      1440.0      24.000      1.0000     2.73785E-03
 STRESS PERIOD TIME  86400.      1440.0      24.000      1.0000     2.73785E-03
         TOTAL TIME 2.12544E+07 3.54240E+05  5904.0      246.00     0.67351    


end timestep


start timestep kper="247" kstp="1" mode="normal"

 #Stressperiod Save Options

 BEGIN READING OUTPUT CONTROL FOR STRESS PERIOD 247
      ALL TIME STEPS WILL BE SAVED
      ALL TIME STEPS WILL BE SAVED

 END READING OUTPUT CONTROL FOR STRESS PERIOD 247


 PROCESSING STORAGE PERIOD DATA
 END PROCESSING STORAGE PERIOD DATA


 STRESS PERIOD 247 IS TRANSIENT


 REUSING DRNS FROM LAST STRESS PERIOD

 REUSING RIVS FROM LAST STRESS PERIOD

 REUSING RIVS FROM LAST STRESS PERIOD

 REUSING RCHS FROM LAST STRESS PERIOD
 UBDSV06 SAVING              DRN IN MODEL GWF_1            PACKAGE GWF_1           CONNECTED TO MODEL GWF_1            PACKAGE DRN_SYS1         ON UNIT   1018 AT TIME STEP      1, STRESS PERIOD    247
 UBDSV06 SAVING              RIV IN MODEL GWF_1            PACKAGE GWF_1           CONNECTED TO MODEL GWF_1            PACKAGE RIV_SYS1         ON UNIT   1018 AT TIME STEP      1, STRESS PERIOD    247
 UBDSV06 SAVING              RIV IN MODEL GWF_1            PACKAGE GWF_1           CONNECTED TO MODEL GWF_1            PACKAGE RIV_SYS2         ON UNIT   1018 AT TIME STEP      1, STRESS PERIOD    247

 HEAD WILL BE SAVED ON UNIT 1017 AT END OF TIME STEP    1, STRESS PERIOD  247


  VOLUME BUDGET FOR ENTIRE MODEL AT END OF TIME STEP    1, STRESS PERIOD 247
  ---------------------------------------------------------------------------------------------------

     CUMULATIVE VOLUME      L**3       RATES FOR THIS TIME STEP      L**3/T          PACKAGE NAME    
     ------------------                 ------------------------                     ----------------

           IN:                                      IN:
           ---                                      ---
              STO-SS =      227437.9700                STO-SS =       1.7409E-02     STORAGE                          
                 DRN =           0.0000                   DRN =           0.0000     DRN_SYS1                         
                 RIV =      273800.4672                   RIV =        1275.8319     RIV_SYS1                         
                 RIV =           0.0000                   RIV =           0.0000     RIV_SYS2                         
                 RCH =           0.0000                   RCH =           0.0000     RCH_MSW                          

            TOTAL IN =      501238.4371              TOTAL IN =        1275.8493

          OUT:                                     OUT:
          ----                                     ----
              STO-SS =           0.0000                STO-SS =           0.0000     STORAGE                          
                 DRN =        7802.6158                   DRN =           9.3225     DRN_SYS1                         
                 RIV =      469822.7810                   RIV =        1226.8901     RIV_SYS1                         
                 RIV =       23614.7386                   RIV =          39.6369     RIV_SYS2                         
                 RCH =           0.0000                   RCH =           0.0000     RCH_MSW                          

           TOTAL OUT =      501240.1355             TOTAL OUT =        1275.8495

            IN - OUT =          -1.6983              IN - OUT =      -1.7745E-04

 PERCENT DISCREPANCY =          -0.00     PERCENT DISCREPANCY =          -0.00




         TIME SUMMARY AT END OF TIME STEP    1 IN STRESS PERIOD  247
                    SECONDS     MINUTES      HOURS       DAYS        YEARS
                    -----------------------------------------------------------
   TIME STEP LENGTH  86400.      1440.0      24.000      1.0000     2.73785E-03
 STRESS PERIOD TIME  86400.      1440.0      24.000      1.0000     2.73785E-03
         TOTAL TIME 2.13408E+07 3.55680E+05  5928.0      247.00     0.67625    


end timestep


start timestep kper="248" kstp="1" mode="normal"

 #Stressperiod Save Options

 BEGIN READING OUTPUT CONTROL FOR STRESS PERIOD 248
      ALL TIME STEPS WILL BE SAVED
      ALL TIME STEPS WILL BE SAVED

 END READING OUTPUT CONTROL FOR STRESS PERIOD 248


 PROCESSING STORAGE PERIOD DATA
 END PROCESSING STORAGE PERIOD DATA


 STRESS PERIOD 248 IS TRANSIENT


 REUSING DRNS FROM LAST STRESS PERIOD

 REUSING RIVS FROM LAST STRESS PERIOD

 REUSING RIVS FROM LAST STRESS PERIOD

 REUSING RCHS FROM LAST STRESS PERIOD
 UBDSV06 SAVING              DRN IN MODEL GWF_1            PACKAGE GWF_1           CONNECTED TO MODEL GWF_1            PACKAGE DRN_SYS1         ON UNIT   1018 AT TIME STEP      1, STRESS PERIOD    248
 UBDSV06 SAVING              RIV IN MODEL GWF_1            PACKAGE GWF_1           CONNECTED TO MODEL GWF_1            PACKAGE RIV_SYS1         ON UNIT   1018 AT TIME STEP      1, STRESS PERIOD    248
 UBDSV06 SAVING              RIV IN MODEL GWF_1            PACKAGE GWF_1           CONNECTED TO MODEL GWF_1            PACKAGE RIV_SYS2         ON UNIT   1018 AT TIME STEP      1, STRESS PERIOD    248

 HEAD WILL BE SAVED ON UNIT 1017 AT END OF TIME STEP    1, STRESS PERIOD  248


  VOLUME BUDGET FOR ENTIRE MODEL AT END OF TIME STEP    1, STRESS PERIOD 248
  ---------------------------------------------------------------------------------------------------

     CUMULATIVE VOLUME      L**3       RATES FOR THIS TIME STEP      L**3/T          PACKAGE NAME    
     ------------------                 ------------------------                     ----------------

           IN:                                      IN:
           ---                                      ---
              STO-SS =      227437.9865                STO-SS =       1.6499E-02     STORAGE                          
                 DRN =           0.0000                   DRN =           0.0000     DRN_SYS1                         
                 RIV =      275076.2994                   RIV =        1275.8322     RIV_SYS1                         
                 RIV =           0.0000                   RIV =           0.0000     RIV_SYS2                         
                 RCH =           0.0000                   RCH =           0.0000     RCH_MSW                          

            TOTAL IN =      502514.2858              TOTAL IN =        1275.8487

          OUT:                                     OUT:
          ----                                     ----
              STO-SS =           0.0000                STO-SS =           0.0000     STORAGE                          
                 DRN =        7811.9383                   DRN =           9.3224     DRN_SYS1                         
                 RIV =      471049.6706                   RIV =        1226.8896     RIV_SYS1                         
                 RIV =       23654.3754                   RIV =          39.6368     RIV_SYS2                         
                 RCH =           0.0000                   RCH =           0.0000     RCH_MSW                          

           TOTAL OUT =      502515.9843             TOTAL OUT =        1275.8489

            IN - OUT =          -1.6985              IN - OUT =      -1.6818E-04

 PERCENT DISCREPANCY =          -0.00     PERCENT DISCREPANCY =          -0.00




         TIME SUMMARY AT END OF TIME STEP    1 IN STRESS PERIOD  248
                    SECONDS     MINUTES      HOURS       DAYS        YEARS
                    -----------------------------------------------------------
   TIME STEP LENGTH  86400.      1440.0      24.000      1.0000     2.73785E-03
 STRESS PERIOD TIME  86400.      1440.0      24.000      1.0000     2.73785E-03
         TOTAL TIME 2.14272E+07 3.57120E+05  5952.0      248.00     0.67899    


end timestep


start timestep kper="249" kstp="1" mode="normal"

 #Stressperiod Save Options

 BEGIN READING OUTPUT CONTROL FOR STRESS PERIOD 249
      ALL TIME STEPS WILL BE SAVED
      ALL TIME STEPS WILL BE SAVED

 END READING OUTPUT CONTROL FOR STRESS PERIOD 249


 PROCESSING STORAGE PERIOD DATA
 END PROCESSING STORAGE PERIOD DATA


 STRESS PERIOD 249 IS TRANSIENT


 REUSING DRNS FROM LAST STRESS PERIOD

 REUSING RIVS FROM LAST STRESS PERIOD

 REUSING RIVS FROM LAST STRESS PERIOD

 REUSING RCHS FROM LAST STRESS PERIOD
 UBDSV06 SAVING              DRN IN MODEL GWF_1            PACKAGE GWF_1           CONNECTED TO MODEL GWF_1            PACKAGE DRN_SYS1         ON UNIT   1018 AT TIME STEP      1, STRESS PERIOD    249
 UBDSV06 SAVING              RIV IN MODEL GWF_1            PACKAGE GWF_1           CONNECTED TO MODEL GWF_1            PACKAGE RIV_SYS1         ON UNIT   1018 AT TIME STEP      1, STRESS PERIOD    249
 UBDSV06 SAVING              RIV IN MODEL GWF_1            PACKAGE GWF_1           CONNECTED TO MODEL GWF_1            PACKAGE RIV_SYS2         ON UNIT   1018 AT TIME STEP      1, STRESS PERIOD    249

 HEAD WILL BE SAVED ON UNIT 1017 AT END OF TIME STEP    1, STRESS PERIOD  249


  VOLUME BUDGET FOR ENTIRE MODEL AT END OF TIME STEP    1, STRESS PERIOD 249
  ---------------------------------------------------------------------------------------------------

     CUMULATIVE VOLUME      L**3       RATES FOR THIS TIME STEP      L**3/T          PACKAGE NAME    
     ------------------                 ------------------------                     ----------------

           IN:                                      IN:
           ---                                      ---
              STO-SS =      227438.0021                STO-SS =       1.5637E-02     STORAGE                          
                 DRN =           0.0000                   DRN =           0.0000     DRN_SYS1                         
                 RIV =      276352.1319                   RIV =        1275.8325     RIV_SYS1                         
                 RIV =           0.0000                   RIV =           0.0000     RIV_SYS2                         
                 RCH =           0.0000                   RCH =           0.0000     RCH_MSW                          

            TOTAL IN =      503790.1339              TOTAL IN =        1275.8481

          OUT:                                     OUT:
          ----                                     ----
              STO-SS =           0.0000                STO-SS =           0.0000     STORAGE                          
                 DRN =        7821.2607                   DRN =           9.3224     DRN_SYS1                         
                 RIV =      472276.5597                   RIV =        1226.8891     RIV_SYS1                         
                 RIV =       23694.0122                   RIV =          39.6368     RIV_SYS2                         
                 RCH =           0.0000                   RCH =           0.0000     RCH_MSW                          

           TOTAL OUT =      503791.8326             TOTAL OUT =        1275.8483

            IN - OUT =          -1.6986              IN - OUT =      -1.5938E-04

 PERCENT DISCREPANCY =          -0.00     PERCENT DISCREPANCY =          -0.00




         TIME SUMMARY AT END OF TIME STEP    1 IN STRESS PERIOD  249
                    SECONDS     MINUTES      HOURS       DAYS        YEARS
                    -----------------------------------------------------------
   TIME STEP LENGTH  86400.      1440.0      24.000      1.0000     2.73785E-03
 STRESS PERIOD TIME  86400.      1440.0      24.000      1.0000     2.73785E-03
         TOTAL TIME 2.15136E+07 3.58560E+05  5976.0      249.00     0.68172    


end timestep


start timestep kper="250" kstp="1" mode="normal"

 #Stressperiod Save Options

 BEGIN READING OUTPUT CONTROL FOR STRESS PERIOD 250
      ALL TIME STEPS WILL BE SAVED
      ALL TIME STEPS WILL BE SAVED

 END READING OUTPUT CONTROL FOR STRESS PERIOD 250


 PROCESSING STORAGE PERIOD DATA
 END PROCESSING STORAGE PERIOD DATA


 STRESS PERIOD 250 IS TRANSIENT


 REUSING DRNS FROM LAST STRESS PERIOD

 REUSING RIVS FROM LAST STRESS PERIOD

 REUSING RIVS FROM LAST STRESS PERIOD

 REUSING RCHS FROM LAST STRESS PERIOD
 UBDSV06 SAVING              DRN IN MODEL GWF_1            PACKAGE GWF_1           CONNECTED TO MODEL GWF_1            PACKAGE DRN_SYS1         ON UNIT   1018 AT TIME STEP      1, STRESS PERIOD    250
 UBDSV06 SAVING              RIV IN MODEL GWF_1            PACKAGE GWF_1           CONNECTED TO MODEL GWF_1            PACKAGE RIV_SYS1         ON UNIT   1018 AT TIME STEP      1, STRESS PERIOD    250
 UBDSV06 SAVING              RIV IN MODEL GWF_1            PACKAGE GWF_1           CONNECTED TO MODEL GWF_1            PACKAGE RIV_SYS2         ON UNIT   1018 AT TIME STEP      1, STRESS PERIOD    250

 HEAD WILL BE SAVED ON UNIT 1017 AT END OF TIME STEP    1, STRESS PERIOD  250


  VOLUME BUDGET FOR ENTIRE MODEL AT END OF TIME STEP    1, STRESS PERIOD 250
  ---------------------------------------------------------------------------------------------------

     CUMULATIVE VOLUME      L**3       RATES FOR THIS TIME STEP      L**3/T          PACKAGE NAME    
     ------------------                 ------------------------                     ----------------

           IN:                                      IN:
           ---                                      ---
              STO-SS =      227438.0169                STO-SS =       1.4819E-02     STORAGE                          
                 DRN =           0.0000                   DRN =           0.0000     DRN_SYS1                         
                 RIV =      277627.9646                   RIV =        1275.8327     RIV_SYS1                         
                 RIV =           0.0000                   RIV =           0.0000     RIV_SYS2                         
                 RCH =           0.0000                   RCH =           0.0000     RCH_MSW                          

            TOTAL IN =      505065.9815              TOTAL IN =        1275.8475

          OUT:                                     OUT:
          ----                                     ----
              STO-SS =           0.0000                STO-SS =           0.0000     STORAGE                          
                 DRN =        7830.5831                   DRN =           9.3224     DRN_SYS1                         
                 RIV =      473503.4483                   RIV =        1226.8886     RIV_SYS1                         
                 RIV =       23733.6489                   RIV =          39.6367     RIV_SYS2                         
                 RCH =           0.0000                   RCH =           0.0000     RCH_MSW                          

           TOTAL OUT =      505067.6803             TOTAL OUT =        1275.8477

            IN - OUT =          -1.6988              IN - OUT =      -1.5105E-04

 PERCENT DISCREPANCY =          -0.00     PERCENT DISCREPANCY =          -0.00




         TIME SUMMARY AT END OF TIME STEP    1 IN STRESS PERIOD  250
                    SECONDS     MINUTES      HOURS       DAYS        YEARS
                    -----------------------------------------------------------
   TIME STEP LENGTH  86400.      1440.0      24.000      1.0000     2.73785E-03
 STRESS PERIOD TIME  86400.      1440.0      24.000      1.0000     2.73785E-03
         TOTAL TIME 2.16000E+07 3.60000E+05  6000.0      250.00     0.68446    


end timestep


start timestep kper="251" kstp="1" mode="normal"

 #Stressperiod Save Options

 BEGIN READING OUTPUT CONTROL FOR STRESS PERIOD 251
      ALL TIME STEPS WILL BE SAVED
      ALL TIME STEPS WILL BE SAVED

 END READING OUTPUT CONTROL FOR STRESS PERIOD 251


 PROCESSING STORAGE PERIOD DATA
 END PROCESSING STORAGE PERIOD DATA


 STRESS PERIOD 251 IS TRANSIENT


 REUSING DRNS FROM LAST STRESS PERIOD

 REUSING RIVS FROM LAST STRESS PERIOD

 REUSING RIVS FROM LAST STRESS PERIOD

 REUSING RCHS FROM LAST STRESS PERIOD
 UBDSV06 SAVING              DRN IN MODEL GWF_1            PACKAGE GWF_1           CONNECTED TO MODEL GWF_1            PACKAGE DRN_SYS1         ON UNIT   1018 AT TIME STEP      1, STRESS PERIOD    251
 UBDSV06 SAVING              RIV IN MODEL GWF_1            PACKAGE GWF_1           CONNECTED TO MODEL GWF_1            PACKAGE RIV_SYS1         ON UNIT   1018 AT TIME STEP      1, STRESS PERIOD    251
 UBDSV06 SAVING              RIV IN MODEL GWF_1            PACKAGE GWF_1           CONNECTED TO MODEL GWF_1            PACKAGE RIV_SYS2         ON UNIT   1018 AT TIME STEP      1, STRESS PERIOD    251

 HEAD WILL BE SAVED ON UNIT 1017 AT END OF TIME STEP    1, STRESS PERIOD  251


  VOLUME BUDGET FOR ENTIRE MODEL AT END OF TIME STEP    1, STRESS PERIOD 251
  ---------------------------------------------------------------------------------------------------

     CUMULATIVE VOLUME      L**3       RATES FOR THIS TIME STEP      L**3/T          PACKAGE NAME    
     ------------------                 ------------------------                     ----------------

           IN:                                      IN:
           ---                                      ---
              STO-SS =      227438.0310                STO-SS =       1.4045E-02     STORAGE                          
                 DRN =           0.0000                   DRN =           0.0000     DRN_SYS1                         
                 RIV =      278903.7976                   RIV =        1275.8330     RIV_SYS1                         
                 RIV =           0.0000                   RIV =           0.0000     RIV_SYS2                         
                 RCH =           0.0000                   RCH =           0.0000     RCH_MSW                          

            TOTAL IN =      506341.8285              TOTAL IN =        1275.8470

          OUT:                                     OUT:
          ----                                     ----
              STO-SS =           0.0000                STO-SS =           0.0000     STORAGE                          
                 DRN =        7839.9054                   DRN =           9.3224     DRN_SYS1                         
                 RIV =      474730.3365                   RIV =        1226.8881     RIV_SYS1                         
                 RIV =       23773.2855                   RIV =          39.6367     RIV_SYS2                         
                 RCH =           0.0000                   RCH =           0.0000     RCH_MSW                          

           TOTAL OUT =      506343.5274             TOTAL OUT =        1275.8472

            IN - OUT =          -1.6989              IN - OUT =      -1.4316E-04

 PERCENT DISCREPANCY =          -0.00     PERCENT DISCREPANCY =          -0.00




         TIME SUMMARY AT END OF TIME STEP    1 IN STRESS PERIOD  251
                    SECONDS     MINUTES      HOURS       DAYS        YEARS
                    -----------------------------------------------------------
   TIME STEP LENGTH  86400.      1440.0      24.000      1.0000     2.73785E-03
 STRESS PERIOD TIME  86400.      1440.0      24.000      1.0000     2.73785E-03
         TOTAL TIME 2.16864E+07 3.61440E+05  6024.0      251.00     0.68720    


end timestep


start timestep kper="252" kstp="1" mode="normal"

 #Stressperiod Save Options

 BEGIN READING OUTPUT CONTROL FOR STRESS PERIOD 252
      ALL TIME STEPS WILL BE SAVED
      ALL TIME STEPS WILL BE SAVED

 END READING OUTPUT CONTROL FOR STRESS PERIOD 252


 PROCESSING STORAGE PERIOD DATA
 END PROCESSING STORAGE PERIOD DATA


 STRESS PERIOD 252 IS TRANSIENT


 REUSING DRNS FROM LAST STRESS PERIOD

 REUSING RIVS FROM LAST STRESS PERIOD

 REUSING RIVS FROM LAST STRESS PERIOD

 REUSING RCHS FROM LAST STRESS PERIOD
 UBDSV06 SAVING              DRN IN MODEL GWF_1            PACKAGE GWF_1           CONNECTED TO MODEL GWF_1            PACKAGE DRN_SYS1         ON UNIT   1018 AT TIME STEP      1, STRESS PERIOD    252
 UBDSV06 SAVING              RIV IN MODEL GWF_1            PACKAGE GWF_1           CONNECTED TO MODEL GWF_1            PACKAGE RIV_SYS1         ON UNIT   1018 AT TIME STEP      1, STRESS PERIOD    252
 UBDSV06 SAVING              RIV IN MODEL GWF_1            PACKAGE GWF_1           CONNECTED TO MODEL GWF_1            PACKAGE RIV_SYS2         ON UNIT   1018 AT TIME STEP      1, STRESS PERIOD    252

 HEAD WILL BE SAVED ON UNIT 1017 AT END OF TIME STEP    1, STRESS PERIOD  252


  VOLUME BUDGET FOR ENTIRE MODEL AT END OF TIME STEP    1, STRESS PERIOD 252
  ---------------------------------------------------------------------------------------------------

     CUMULATIVE VOLUME      L**3       RATES FOR THIS TIME STEP      L**3/T          PACKAGE NAME    
     ------------------                 ------------------------                     ----------------

           IN:                                      IN:
           ---                                      ---
              STO-SS =      227438.0443                STO-SS =       1.3311E-02     STORAGE                          
                 DRN =           0.0000                   DRN =           0.0000     DRN_SYS1                         
                 RIV =      280179.6308                   RIV =        1275.8332     RIV_SYS1                         
                 RIV =           0.0000                   RIV =           0.0000     RIV_SYS2                         
                 RCH =           0.0000                   RCH =           0.0000     RCH_MSW                          

            TOTAL IN =      507617.6750              TOTAL IN =        1275.8465

          OUT:                                     OUT:
          ----                                     ----
              STO-SS =           0.0000                STO-SS =           0.0000     STORAGE                          
                 DRN =        7849.2278                   DRN =           9.3223     DRN_SYS1                         
                 RIV =      475957.2242                   RIV =        1226.8877     RIV_SYS1                         
                 RIV =       23812.9222                   RIV =          39.6366     RIV_SYS2                         
                 RCH =           0.0000                   RCH =           0.0000     RCH_MSW                          

           TOTAL OUT =      507619.3741             TOTAL OUT =        1275.8467

            IN - OUT =          -1.6991              IN - OUT =      -1.3567E-04

 PERCENT DISCREPANCY =          -0.00     PERCENT DISCREPANCY =          -0.00




         TIME SUMMARY AT END OF TIME STEP    1 IN STRESS PERIOD  252
                    SECONDS     MINUTES      HOURS       DAYS        YEARS
                    -----------------------------------------------------------
   TIME STEP LENGTH  86400.      1440.0      24.000      1.0000     2.73785E-03
 STRESS PERIOD TIME  86400.      1440.0      24.000      1.0000     2.73785E-03
         TOTAL TIME 2.17728E+07 3.62880E+05  6048.0      252.00     0.68994    


end timestep


start timestep kper="253" kstp="1" mode="normal"

 #Stressperiod Save Options

 BEGIN READING OUTPUT CONTROL FOR STRESS PERIOD 253
      ALL TIME STEPS WILL BE SAVED
      ALL TIME STEPS WILL BE SAVED

 END READING OUTPUT CONTROL FOR STRESS PERIOD 253


 PROCESSING STORAGE PERIOD DATA
 END PROCESSING STORAGE PERIOD DATA


 STRESS PERIOD 253 IS TRANSIENT


 REUSING DRNS FROM LAST STRESS PERIOD

 REUSING RIVS FROM LAST STRESS PERIOD

 REUSING RIVS FROM LAST STRESS PERIOD

 REUSING RCHS FROM LAST STRESS PERIOD
 UBDSV06 SAVING              DRN IN MODEL GWF_1            PACKAGE GWF_1           CONNECTED TO MODEL GWF_1            PACKAGE DRN_SYS1         ON UNIT   1018 AT TIME STEP      1, STRESS PERIOD    253
 UBDSV06 SAVING              RIV IN MODEL GWF_1            PACKAGE GWF_1           CONNECTED TO MODEL GWF_1            PACKAGE RIV_SYS1         ON UNIT   1018 AT TIME STEP      1, STRESS PERIOD    253
 UBDSV06 SAVING              RIV IN MODEL GWF_1            PACKAGE GWF_1           CONNECTED TO MODEL GWF_1            PACKAGE RIV_SYS2         ON UNIT   1018 AT TIME STEP      1, STRESS PERIOD    253

 HEAD WILL BE SAVED ON UNIT 1017 AT END OF TIME STEP    1, STRESS PERIOD  253


  VOLUME BUDGET FOR ENTIRE MODEL AT END OF TIME STEP    1, STRESS PERIOD 253
  ---------------------------------------------------------------------------------------------------

     CUMULATIVE VOLUME      L**3       RATES FOR THIS TIME STEP      L**3/T          PACKAGE NAME    
     ------------------                 ------------------------                     ----------------

           IN:                                      IN:
           ---                                      ---
              STO-SS =      227438.0569                STO-SS =       1.2615E-02     STORAGE                          
                 DRN =           0.0000                   DRN =           0.0000     DRN_SYS1                         
                 RIV =      281455.4642                   RIV =        1275.8334     RIV_SYS1                         
                 RIV =           0.0000                   RIV =           0.0000     RIV_SYS2                         
                 RCH =           0.0000                   RCH =           0.0000     RCH_MSW                          

            TOTAL IN =      508893.5211              TOTAL IN =        1275.8461

          OUT:                                     OUT:
          ----                                     ----
              STO-SS =           0.0000                STO-SS =           0.0000     STORAGE                          
                 DRN =        7858.5501                   DRN =           9.3223     DRN_SYS1                         
                 RIV =      477184.1115                   RIV =        1226.8873     RIV_SYS1                         
                 RIV =       23852.5587                   RIV =          39.6366     RIV_SYS2                         
                 RCH =           0.0000                   RCH =           0.0000     RCH_MSW                          

           TOTAL OUT =      508895.2203             TOTAL OUT =        1275.8462

            IN - OUT =          -1.6992              IN - OUT =      -1.2858E-04

 PERCENT DISCREPANCY =          -0.00     PERCENT DISCREPANCY =          -0.00




         TIME SUMMARY AT END OF TIME STEP    1 IN STRESS PERIOD  253
                    SECONDS     MINUTES      HOURS       DAYS        YEARS
                    -----------------------------------------------------------
   TIME STEP LENGTH  86400.      1440.0      24.000      1.0000     2.73785E-03
 STRESS PERIOD TIME  86400.      1440.0      24.000      1.0000     2.73785E-03
         TOTAL TIME 2.18592E+07 3.64320E+05  6072.0      253.00     0.69268    


end timestep


start timestep kper="254" kstp="1" mode="normal"

 #Stressperiod Save Options

 BEGIN READING OUTPUT CONTROL FOR STRESS PERIOD 254
      ALL TIME STEPS WILL BE SAVED
      ALL TIME STEPS WILL BE SAVED

 END READING OUTPUT CONTROL FOR STRESS PERIOD 254


 PROCESSING STORAGE PERIOD DATA
 END PROCESSING STORAGE PERIOD DATA


 STRESS PERIOD 254 IS TRANSIENT


 REUSING DRNS FROM LAST STRESS PERIOD

 REUSING RIVS FROM LAST STRESS PERIOD

 REUSING RIVS FROM LAST STRESS PERIOD

 REUSING RCHS FROM LAST STRESS PERIOD
 UBDSV06 SAVING              DRN IN MODEL GWF_1            PACKAGE GWF_1           CONNECTED TO MODEL GWF_1            PACKAGE DRN_SYS1         ON UNIT   1018 AT TIME STEP      1, STRESS PERIOD    254
 UBDSV06 SAVING              RIV IN MODEL GWF_1            PACKAGE GWF_1           CONNECTED TO MODEL GWF_1            PACKAGE RIV_SYS1         ON UNIT   1018 AT TIME STEP      1, STRESS PERIOD    254
 UBDSV06 SAVING              RIV IN MODEL GWF_1            PACKAGE GWF_1           CONNECTED TO MODEL GWF_1            PACKAGE RIV_SYS2         ON UNIT   1018 AT TIME STEP      1, STRESS PERIOD    254

 HEAD WILL BE SAVED ON UNIT 1017 AT END OF TIME STEP    1, STRESS PERIOD  254


  VOLUME BUDGET FOR ENTIRE MODEL AT END OF TIME STEP    1, STRESS PERIOD 254
  ---------------------------------------------------------------------------------------------------

     CUMULATIVE VOLUME      L**3       RATES FOR THIS TIME STEP      L**3/T          PACKAGE NAME    
     ------------------                 ------------------------                     ----------------

           IN:                                      IN:
           ---                                      ---
              STO-SS =      227438.0688                STO-SS =       1.1956E-02     STORAGE                          
                 DRN =           0.0000                   DRN =           0.0000     DRN_SYS1                         
                 RIV =      282731.2979                   RIV =        1275.8336     RIV_SYS1                         
                 RIV =           0.0000                   RIV =           0.0000     RIV_SYS2                         
                 RCH =           0.0000                   RCH =           0.0000     RCH_MSW                          

            TOTAL IN =      510169.3667              TOTAL IN =        1275.8456

          OUT:                                     OUT:
          ----                                     ----
              STO-SS =           0.0000                STO-SS =           0.0000     STORAGE                          
                 DRN =        7867.8724                   DRN =           9.3223     DRN_SYS1                         
                 RIV =      478410.9984                   RIV =        1226.8869     RIV_SYS1                         
                 RIV =       23892.1953                   RIV =          39.6365     RIV_SYS2                         
                 RCH =           0.0000                   RCH =           0.0000     RCH_MSW                          

           TOTAL OUT =      510171.0660             TOTAL OUT =        1275.8457

            IN - OUT =          -1.6993              IN - OUT =      -1.2186E-04

 PERCENT DISCREPANCY =          -0.00     PERCENT DISCREPANCY =          -0.00




         TIME SUMMARY AT END OF TIME STEP    1 IN STRESS PERIOD  254
                    SECONDS     MINUTES      HOURS       DAYS        YEARS
                    -----------------------------------------------------------
   TIME STEP LENGTH  86400.      1440.0      24.000      1.0000     2.73785E-03
 STRESS PERIOD TIME  86400.      1440.0      24.000      1.0000     2.73785E-03
         TOTAL TIME 2.19456E+07 3.65760E+05  6096.0      254.00     0.69541    


end timestep


start timestep kper="255" kstp="1" mode="normal"

 #Stressperiod Save Options

 BEGIN READING OUTPUT CONTROL FOR STRESS PERIOD 255
      ALL TIME STEPS WILL BE SAVED
      ALL TIME STEPS WILL BE SAVED

 END READING OUTPUT CONTROL FOR STRESS PERIOD 255


 PROCESSING STORAGE PERIOD DATA
 END PROCESSING STORAGE PERIOD DATA


 STRESS PERIOD 255 IS TRANSIENT


 REUSING DRNS FROM LAST STRESS PERIOD

 REUSING RIVS FROM LAST STRESS PERIOD

 REUSING RIVS FROM LAST STRESS PERIOD

 REUSING RCHS FROM LAST STRESS PERIOD
 UBDSV06 SAVING              DRN IN MODEL GWF_1            PACKAGE GWF_1           CONNECTED TO MODEL GWF_1            PACKAGE DRN_SYS1         ON UNIT   1018 AT TIME STEP      1, STRESS PERIOD    255
 UBDSV06 SAVING              RIV IN MODEL GWF_1            PACKAGE GWF_1           CONNECTED TO MODEL GWF_1            PACKAGE RIV_SYS1         ON UNIT   1018 AT TIME STEP      1, STRESS PERIOD    255
 UBDSV06 SAVING              RIV IN MODEL GWF_1            PACKAGE GWF_1           CONNECTED TO MODEL GWF_1            PACKAGE RIV_SYS2         ON UNIT   1018 AT TIME STEP      1, STRESS PERIOD    255

 HEAD WILL BE SAVED ON UNIT 1017 AT END OF TIME STEP    1, STRESS PERIOD  255


  VOLUME BUDGET FOR ENTIRE MODEL AT END OF TIME STEP    1, STRESS PERIOD 255
  ---------------------------------------------------------------------------------------------------

     CUMULATIVE VOLUME      L**3       RATES FOR THIS TIME STEP      L**3/T          PACKAGE NAME    
     ------------------                 ------------------------                     ----------------

           IN:                                      IN:
           ---                                      ---
              STO-SS =      227438.0802                STO-SS =       1.1331E-02     STORAGE                          
                 DRN =           0.0000                   DRN =           0.0000     DRN_SYS1                         
                 RIV =      284007.1317                   RIV =        1275.8338     RIV_SYS1                         
                 RIV =           0.0000                   RIV =           0.0000     RIV_SYS2                         
                 RCH =           0.0000                   RCH =           0.0000     RCH_MSW                          

            TOTAL IN =      511445.2119              TOTAL IN =        1275.8452

          OUT:                                     OUT:
          ----                                     ----
              STO-SS =           0.0000                STO-SS =           0.0000     STORAGE                          
                 DRN =        7877.1946                   DRN =           9.3223     DRN_SYS1                         
                 RIV =      479637.8849                   RIV =        1226.8865     RIV_SYS1                         
                 RIV =       23931.8318                   RIV =          39.6365     RIV_SYS2                         
                 RCH =           0.0000                   RCH =           0.0000     RCH_MSW                          

           TOTAL OUT =      511446.9113             TOTAL OUT =        1275.8453

            IN - OUT =          -1.6994              IN - OUT =      -1.1549E-04

 PERCENT DISCREPANCY =          -0.00     PERCENT DISCREPANCY =          -0.00




         TIME SUMMARY AT END OF TIME STEP    1 IN STRESS PERIOD  255
                    SECONDS     MINUTES      HOURS       DAYS        YEARS
                    -----------------------------------------------------------
   TIME STEP LENGTH  86400.      1440.0      24.000      1.0000     2.73785E-03
 STRESS PERIOD TIME  86400.      1440.0      24.000      1.0000     2.73785E-03
         TOTAL TIME 2.20320E+07 3.67200E+05  6120.0      255.00     0.69815    


end timestep


start timestep kper="256" kstp="1" mode="normal"

 #Stressperiod Save Options

 BEGIN READING OUTPUT CONTROL FOR STRESS PERIOD 256
      ALL TIME STEPS WILL BE SAVED
      ALL TIME STEPS WILL BE SAVED

 END READING OUTPUT CONTROL FOR STRESS PERIOD 256


 PROCESSING STORAGE PERIOD DATA
 END PROCESSING STORAGE PERIOD DATA


 STRESS PERIOD 256 IS TRANSIENT


 REUSING DRNS FROM LAST STRESS PERIOD

 REUSING RIVS FROM LAST STRESS PERIOD

 REUSING RIVS FROM LAST STRESS PERIOD

 REUSING RCHS FROM LAST STRESS PERIOD
 UBDSV06 SAVING              DRN IN MODEL GWF_1            PACKAGE GWF_1           CONNECTED TO MODEL GWF_1            PACKAGE DRN_SYS1         ON UNIT   1018 AT TIME STEP      1, STRESS PERIOD    256
 UBDSV06 SAVING              RIV IN MODEL GWF_1            PACKAGE GWF_1           CONNECTED TO MODEL GWF_1            PACKAGE RIV_SYS1         ON UNIT   1018 AT TIME STEP      1, STRESS PERIOD    256
 UBDSV06 SAVING              RIV IN MODEL GWF_1            PACKAGE GWF_1           CONNECTED TO MODEL GWF_1            PACKAGE RIV_SYS2         ON UNIT   1018 AT TIME STEP      1, STRESS PERIOD    256

 HEAD WILL BE SAVED ON UNIT 1017 AT END OF TIME STEP    1, STRESS PERIOD  256


  VOLUME BUDGET FOR ENTIRE MODEL AT END OF TIME STEP    1, STRESS PERIOD 256
  ---------------------------------------------------------------------------------------------------

     CUMULATIVE VOLUME      L**3       RATES FOR THIS TIME STEP      L**3/T          PACKAGE NAME    
     ------------------                 ------------------------                     ----------------

           IN:                                      IN:
           ---                                      ---
              STO-SS =      227438.0909                STO-SS =       1.0739E-02     STORAGE                          
                 DRN =           0.0000                   DRN =           0.0000     DRN_SYS1                         
                 RIV =      285282.9657                   RIV =        1275.8340     RIV_SYS1                         
                 RIV =           0.0000                   RIV =           0.0000     RIV_SYS2                         
                 RCH =           0.0000                   RCH =           0.0000     RCH_MSW                          

            TOTAL IN =      512721.0566              TOTAL IN =        1275.8448

          OUT:                                     OUT:
          ----                                     ----
              STO-SS =           0.0000                STO-SS =           0.0000     STORAGE                          
                 DRN =        7886.5169                   DRN =           9.3222     DRN_SYS1                         
                 RIV =      480864.7711                   RIV =        1226.8862     RIV_SYS1                         
                 RIV =       23971.4682                   RIV =          39.6365     RIV_SYS2                         
                 RCH =           0.0000                   RCH =           0.0000     RCH_MSW                          

           TOTAL OUT =      512722.7562             TOTAL OUT =        1275.8449

            IN - OUT =          -1.6995              IN - OUT =      -1.0945E-04

 PERCENT DISCREPANCY =          -0.00     PERCENT DISCREPANCY =          -0.00




         TIME SUMMARY AT END OF TIME STEP    1 IN STRESS PERIOD  256
                    SECONDS     MINUTES      HOURS       DAYS        YEARS
                    -----------------------------------------------------------
   TIME STEP LENGTH  86400.      1440.0      24.000      1.0000     2.73785E-03
 STRESS PERIOD TIME  86400.      1440.0      24.000      1.0000     2.73785E-03
         TOTAL TIME 2.21184E+07 3.68640E+05  6144.0      256.00     0.70089    


end timestep


start timestep kper="257" kstp="1" mode="normal"

 #Stressperiod Save Options

 BEGIN READING OUTPUT CONTROL FOR STRESS PERIOD 257
      ALL TIME STEPS WILL BE SAVED
      ALL TIME STEPS WILL BE SAVED

 END READING OUTPUT CONTROL FOR STRESS PERIOD 257


 PROCESSING STORAGE PERIOD DATA
 END PROCESSING STORAGE PERIOD DATA


 STRESS PERIOD 257 IS TRANSIENT


 REUSING DRNS FROM LAST STRESS PERIOD

 REUSING RIVS FROM LAST STRESS PERIOD

 REUSING RIVS FROM LAST STRESS PERIOD

 REUSING RCHS FROM LAST STRESS PERIOD
 UBDSV06 SAVING              DRN IN MODEL GWF_1            PACKAGE GWF_1           CONNECTED TO MODEL GWF_1            PACKAGE DRN_SYS1         ON UNIT   1018 AT TIME STEP      1, STRESS PERIOD    257
 UBDSV06 SAVING              RIV IN MODEL GWF_1            PACKAGE GWF_1           CONNECTED TO MODEL GWF_1            PACKAGE RIV_SYS1         ON UNIT   1018 AT TIME STEP      1, STRESS PERIOD    257
 UBDSV06 SAVING              RIV IN MODEL GWF_1            PACKAGE GWF_1           CONNECTED TO MODEL GWF_1            PACKAGE RIV_SYS2         ON UNIT   1018 AT TIME STEP      1, STRESS PERIOD    257

 HEAD WILL BE SAVED ON UNIT 1017 AT END OF TIME STEP    1, STRESS PERIOD  257


  VOLUME BUDGET FOR ENTIRE MODEL AT END OF TIME STEP    1, STRESS PERIOD 257
  ---------------------------------------------------------------------------------------------------

     CUMULATIVE VOLUME      L**3       RATES FOR THIS TIME STEP      L**3/T          PACKAGE NAME    
     ------------------                 ------------------------                     ----------------

           IN:                                      IN:
           ---                                      ---
              STO-SS =      227438.1011                STO-SS =       1.0178E-02     STORAGE                          
                 DRN =           0.0000                   DRN =           0.0000     DRN_SYS1                         
                 RIV =      286558.8000                   RIV =        1275.8342     RIV_SYS1                         
                 RIV =           0.0000                   RIV =           0.0000     RIV_SYS2                         
                 RCH =           0.0000                   RCH =           0.0000     RCH_MSW                          

            TOTAL IN =      513996.9010              TOTAL IN =        1275.8444

          OUT:                                     OUT:
          ----                                     ----
              STO-SS =           0.0000                STO-SS =           0.0000     STORAGE                          
                 DRN =        7895.8391                   DRN =           9.3222     DRN_SYS1                         
                 RIV =      482091.6569                   RIV =        1226.8859     RIV_SYS1                         
                 RIV =       24011.1046                   RIV =          39.6364     RIV_SYS2                         
                 RCH =           0.0000                   RCH =           0.0000     RCH_MSW                          

           TOTAL OUT =      513998.6007             TOTAL OUT =        1275.8445

            IN - OUT =          -1.6997              IN - OUT =      -1.0373E-04

 PERCENT DISCREPANCY =          -0.00     PERCENT DISCREPANCY =          -0.00




         TIME SUMMARY AT END OF TIME STEP    1 IN STRESS PERIOD  257
                    SECONDS     MINUTES      HOURS       DAYS        YEARS
                    -----------------------------------------------------------
   TIME STEP LENGTH  86400.      1440.0      24.000      1.0000     2.73785E-03
 STRESS PERIOD TIME  86400.      1440.0      24.000      1.0000     2.73785E-03
         TOTAL TIME 2.22048E+07 3.70080E+05  6168.0      257.00     0.70363    


end timestep


start timestep kper="258" kstp="1" mode="normal"

 #Stressperiod Save Options

 BEGIN READING OUTPUT CONTROL FOR STRESS PERIOD 258
      ALL TIME STEPS WILL BE SAVED
      ALL TIME STEPS WILL BE SAVED

 END READING OUTPUT CONTROL FOR STRESS PERIOD 258


 PROCESSING STORAGE PERIOD DATA
 END PROCESSING STORAGE PERIOD DATA


 STRESS PERIOD 258 IS TRANSIENT


 REUSING DRNS FROM LAST STRESS PERIOD

 REUSING RIVS FROM LAST STRESS PERIOD

 REUSING RIVS FROM LAST STRESS PERIOD

 REUSING RCHS FROM LAST STRESS PERIOD
 UBDSV06 SAVING              DRN IN MODEL GWF_1            PACKAGE GWF_1           CONNECTED TO MODEL GWF_1            PACKAGE DRN_SYS1         ON UNIT   1018 AT TIME STEP      1, STRESS PERIOD    258
 UBDSV06 SAVING              RIV IN MODEL GWF_1            PACKAGE GWF_1           CONNECTED TO MODEL GWF_1            PACKAGE RIV_SYS1         ON UNIT   1018 AT TIME STEP      1, STRESS PERIOD    258
 UBDSV06 SAVING              RIV IN MODEL GWF_1            PACKAGE GWF_1           CONNECTED TO MODEL GWF_1            PACKAGE RIV_SYS2         ON UNIT   1018 AT TIME STEP      1, STRESS PERIOD    258

 HEAD WILL BE SAVED ON UNIT 1017 AT END OF TIME STEP    1, STRESS PERIOD  258


  VOLUME BUDGET FOR ENTIRE MODEL AT END OF TIME STEP    1, STRESS PERIOD 258
  ---------------------------------------------------------------------------------------------------

     CUMULATIVE VOLUME      L**3       RATES FOR THIS TIME STEP      L**3/T          PACKAGE NAME    
     ------------------                 ------------------------                     ----------------

           IN:                                      IN:
           ---                                      ---
              STO-SS =      227438.1107                STO-SS =       9.6459E-03     STORAGE                          
                 DRN =           0.0000                   DRN =           0.0000     DRN_SYS1                         
                 RIV =      287834.6343                   RIV =        1275.8344     RIV_SYS1                         
                 RIV =           0.0000                   RIV =           0.0000     RIV_SYS2                         
                 RCH =           0.0000                   RCH =           0.0000     RCH_MSW                          

            TOTAL IN =      515272.7451              TOTAL IN =        1275.8440

          OUT:                                     OUT:
          ----                                     ----
              STO-SS =           0.0000                STO-SS =           0.0000     STORAGE                          
                 DRN =        7905.1613                   DRN =           9.3222     DRN_SYS1                         
                 RIV =      483318.5425                   RIV =        1226.8855     RIV_SYS1                         
                 RIV =       24050.7410                   RIV =          39.6364     RIV_SYS2                         
                 RCH =           0.0000                   RCH =           0.0000     RCH_MSW                          

           TOTAL OUT =      515274.4448             TOTAL OUT =        1275.8441

            IN - OUT =          -1.6998              IN - OUT =      -9.8310E-05

 PERCENT DISCREPANCY =          -0.00     PERCENT DISCREPANCY =          -0.00




         TIME SUMMARY AT END OF TIME STEP    1 IN STRESS PERIOD  258
                    SECONDS     MINUTES      HOURS       DAYS        YEARS
                    -----------------------------------------------------------
   TIME STEP LENGTH  86400.      1440.0      24.000      1.0000     2.73785E-03
 STRESS PERIOD TIME  86400.      1440.0      24.000      1.0000     2.73785E-03
         TOTAL TIME 2.22912E+07 3.71520E+05  6192.0      258.00     0.70637    


end timestep


start timestep kper="259" kstp="1" mode="normal"

 #Stressperiod Save Options

 BEGIN READING OUTPUT CONTROL FOR STRESS PERIOD 259
      ALL TIME STEPS WILL BE SAVED
      ALL TIME STEPS WILL BE SAVED

 END READING OUTPUT CONTROL FOR STRESS PERIOD 259


 PROCESSING STORAGE PERIOD DATA
 END PROCESSING STORAGE PERIOD DATA


 STRESS PERIOD 259 IS TRANSIENT


 REUSING DRNS FROM LAST STRESS PERIOD

 REUSING RIVS FROM LAST STRESS PERIOD

 REUSING RIVS FROM LAST STRESS PERIOD

 REUSING RCHS FROM LAST STRESS PERIOD
 UBDSV06 SAVING              DRN IN MODEL GWF_1            PACKAGE GWF_1           CONNECTED TO MODEL GWF_1            PACKAGE DRN_SYS1         ON UNIT   1018 AT TIME STEP      1, STRESS PERIOD    259
 UBDSV06 SAVING              RIV IN MODEL GWF_1            PACKAGE GWF_1           CONNECTED TO MODEL GWF_1            PACKAGE RIV_SYS1         ON UNIT   1018 AT TIME STEP      1, STRESS PERIOD    259
 UBDSV06 SAVING              RIV IN MODEL GWF_1            PACKAGE GWF_1           CONNECTED TO MODEL GWF_1            PACKAGE RIV_SYS2         ON UNIT   1018 AT TIME STEP      1, STRESS PERIOD    259

 HEAD WILL BE SAVED ON UNIT 1017 AT END OF TIME STEP    1, STRESS PERIOD  259


  VOLUME BUDGET FOR ENTIRE MODEL AT END OF TIME STEP    1, STRESS PERIOD 259
  ---------------------------------------------------------------------------------------------------

     CUMULATIVE VOLUME      L**3       RATES FOR THIS TIME STEP      L**3/T          PACKAGE NAME    
     ------------------                 ------------------------                     ----------------

           IN:                                      IN:
           ---                                      ---
              STO-SS =      227438.1199                STO-SS =       9.1418E-03     STORAGE                          
                 DRN =           0.0000                   DRN =           0.0000     DRN_SYS1                         
                 RIV =      289110.4689                   RIV =        1275.8346     RIV_SYS1                         
                 RIV =           0.0000                   RIV =           0.0000     RIV_SYS2                         
                 RCH =           0.0000                   RCH =           0.0000     RCH_MSW                          

            TOTAL IN =      516548.5888              TOTAL IN =        1275.8437

          OUT:                                     OUT:
          ----                                     ----
              STO-SS =           0.0000                STO-SS =           0.0000     STORAGE                          
                 DRN =        7914.4835                   DRN =           9.3222     DRN_SYS1                         
                 RIV =      484545.4277                   RIV =        1226.8852     RIV_SYS1                         
                 RIV =       24090.3774                   RIV =          39.6364     RIV_SYS2                         
                 RCH =           0.0000                   RCH =           0.0000     RCH_MSW                          

           TOTAL OUT =      516550.2886             TOTAL OUT =        1275.8438

            IN - OUT =          -1.6998              IN - OUT =      -9.3171E-05

 PERCENT DISCREPANCY =          -0.00     PERCENT DISCREPANCY =          -0.00




         TIME SUMMARY AT END OF TIME STEP    1 IN STRESS PERIOD  259
                    SECONDS     MINUTES      HOURS       DAYS        YEARS
                    -----------------------------------------------------------
   TIME STEP LENGTH  86400.      1440.0      24.000      1.0000     2.73785E-03
 STRESS PERIOD TIME  86400.      1440.0      24.000      1.0000     2.73785E-03
         TOTAL TIME 2.23776E+07 3.72960E+05  6216.0      259.00     0.70910    


end timestep


start timestep kper="260" kstp="1" mode="normal"

 #Stressperiod Save Options

 BEGIN READING OUTPUT CONTROL FOR STRESS PERIOD 260
      ALL TIME STEPS WILL BE SAVED
      ALL TIME STEPS WILL BE SAVED

 END READING OUTPUT CONTROL FOR STRESS PERIOD 260


 PROCESSING STORAGE PERIOD DATA
 END PROCESSING STORAGE PERIOD DATA


 STRESS PERIOD 260 IS TRANSIENT


 REUSING DRNS FROM LAST STRESS PERIOD

 REUSING RIVS FROM LAST STRESS PERIOD

 REUSING RIVS FROM LAST STRESS PERIOD

 REUSING RCHS FROM LAST STRESS PERIOD
 UBDSV06 SAVING              DRN IN MODEL GWF_1            PACKAGE GWF_1           CONNECTED TO MODEL GWF_1            PACKAGE DRN_SYS1         ON UNIT   1018 AT TIME STEP      1, STRESS PERIOD    260
 UBDSV06 SAVING              RIV IN MODEL GWF_1            PACKAGE GWF_1           CONNECTED TO MODEL GWF_1            PACKAGE RIV_SYS1         ON UNIT   1018 AT TIME STEP      1, STRESS PERIOD    260
 UBDSV06 SAVING              RIV IN MODEL GWF_1            PACKAGE GWF_1           CONNECTED TO MODEL GWF_1            PACKAGE RIV_SYS2         ON UNIT   1018 AT TIME STEP      1, STRESS PERIOD    260

 HEAD WILL BE SAVED ON UNIT 1017 AT END OF TIME STEP    1, STRESS PERIOD  260


  VOLUME BUDGET FOR ENTIRE MODEL AT END OF TIME STEP    1, STRESS PERIOD 260
  ---------------------------------------------------------------------------------------------------

     CUMULATIVE VOLUME      L**3       RATES FOR THIS TIME STEP      L**3/T          PACKAGE NAME    
     ------------------                 ------------------------                     ----------------

           IN:                                      IN:
           ---                                      ---
              STO-SS =      227438.1285                STO-SS =       8.6640E-03     STORAGE                          
                 DRN =           0.0000                   DRN =           0.0000     DRN_SYS1                         
                 RIV =      290386.3036                   RIV =        1275.8347     RIV_SYS1                         
                 RIV =           0.0000                   RIV =           0.0000     RIV_SYS2                         
                 RCH =           0.0000                   RCH =           0.0000     RCH_MSW                          

            TOTAL IN =      517824.4321              TOTAL IN =        1275.8434

          OUT:                                     OUT:
          ----                                     ----
              STO-SS =           0.0000                STO-SS =           0.0000     STORAGE                          
                 DRN =        7923.8057                   DRN =           9.3222     DRN_SYS1                         
                 RIV =      485772.3127                   RIV =        1226.8850     RIV_SYS1                         
                 RIV =       24130.0137                   RIV =          39.6363     RIV_SYS2                         
                 RCH =           0.0000                   RCH =           0.0000     RCH_MSW                          

           TOTAL OUT =      517826.1321             TOTAL OUT =        1275.8435

            IN - OUT =          -1.6999              IN - OUT =      -8.8301E-05

 PERCENT DISCREPANCY =          -0.00     PERCENT DISCREPANCY =          -0.00




         TIME SUMMARY AT END OF TIME STEP    1 IN STRESS PERIOD  260
                    SECONDS     MINUTES      HOURS       DAYS        YEARS
                    -----------------------------------------------------------
   TIME STEP LENGTH  86400.      1440.0      24.000      1.0000     2.73785E-03
 STRESS PERIOD TIME  86400.      1440.0      24.000      1.0000     2.73785E-03
         TOTAL TIME 2.24640E+07 3.74400E+05  6240.0      260.00     0.71184    


end timestep


start timestep kper="261" kstp="1" mode="normal"

 #Stressperiod Save Options

 BEGIN READING OUTPUT CONTROL FOR STRESS PERIOD 261
      ALL TIME STEPS WILL BE SAVED
      ALL TIME STEPS WILL BE SAVED

 END READING OUTPUT CONTROL FOR STRESS PERIOD 261


 PROCESSING STORAGE PERIOD DATA
 END PROCESSING STORAGE PERIOD DATA


 STRESS PERIOD 261 IS TRANSIENT


 REUSING DRNS FROM LAST STRESS PERIOD

 REUSING RIVS FROM LAST STRESS PERIOD

 REUSING RIVS FROM LAST STRESS PERIOD

 REUSING RCHS FROM LAST STRESS PERIOD
 UBDSV06 SAVING              DRN IN MODEL GWF_1            PACKAGE GWF_1           CONNECTED TO MODEL GWF_1            PACKAGE DRN_SYS1         ON UNIT   1018 AT TIME STEP      1, STRESS PERIOD    261
 UBDSV06 SAVING              RIV IN MODEL GWF_1            PACKAGE GWF_1           CONNECTED TO MODEL GWF_1            PACKAGE RIV_SYS1         ON UNIT   1018 AT TIME STEP      1, STRESS PERIOD    261
 UBDSV06 SAVING              RIV IN MODEL GWF_1            PACKAGE GWF_1           CONNECTED TO MODEL GWF_1            PACKAGE RIV_SYS2         ON UNIT   1018 AT TIME STEP      1, STRESS PERIOD    261

 HEAD WILL BE SAVED ON UNIT 1017 AT END OF TIME STEP    1, STRESS PERIOD  261


  VOLUME BUDGET FOR ENTIRE MODEL AT END OF TIME STEP    1, STRESS PERIOD 261
  ---------------------------------------------------------------------------------------------------

     CUMULATIVE VOLUME      L**3       RATES FOR THIS TIME STEP      L**3/T          PACKAGE NAME    
     ------------------                 ------------------------                     ----------------

           IN:                                      IN:
           ---                                      ---
              STO-SS =      227438.1367                STO-SS =       8.2113E-03     STORAGE                          
                 DRN =           0.0000                   DRN =           0.0000     DRN_SYS1                         
                 RIV =      291662.1384                   RIV =        1275.8348     RIV_SYS1                         
                 RIV =           0.0000                   RIV =           0.0000     RIV_SYS2                         
                 RCH =           0.0000                   RCH =           0.0000     RCH_MSW                          

            TOTAL IN =      519100.2752              TOTAL IN =        1275.8431

          OUT:                                     OUT:
          ----                                     ----
              STO-SS =           0.0000                STO-SS =           0.0000     STORAGE                          
                 DRN =        7933.1279                   DRN =           9.3222     DRN_SYS1                         
                 RIV =      486999.1974                   RIV =        1226.8847     RIV_SYS1                         
                 RIV =       24169.6500                   RIV =          39.6363     RIV_SYS2                         
                 RCH =           0.0000                   RCH =           0.0000     RCH_MSW                          

           TOTAL OUT =      519101.9752             TOTAL OUT =        1275.8431

            IN - OUT =          -1.7000              IN - OUT =      -8.3686E-05

 PERCENT DISCREPANCY =          -0.00     PERCENT DISCREPANCY =          -0.00




         TIME SUMMARY AT END OF TIME STEP    1 IN STRESS PERIOD  261
                    SECONDS     MINUTES      HOURS       DAYS        YEARS
                    -----------------------------------------------------------
   TIME STEP LENGTH  86400.      1440.0      24.000      1.0000     2.73785E-03
 STRESS PERIOD TIME  86400.      1440.0      24.000      1.0000     2.73785E-03
         TOTAL TIME 2.25504E+07 3.75840E+05  6264.0      261.00     0.71458    


end timestep


start timestep kper="262" kstp="1" mode="normal"

 #Stressperiod Save Options

 BEGIN READING OUTPUT CONTROL FOR STRESS PERIOD 262
      ALL TIME STEPS WILL BE SAVED
      ALL TIME STEPS WILL BE SAVED

 END READING OUTPUT CONTROL FOR STRESS PERIOD 262


 PROCESSING STORAGE PERIOD DATA
 END PROCESSING STORAGE PERIOD DATA


 STRESS PERIOD 262 IS TRANSIENT


 REUSING DRNS FROM LAST STRESS PERIOD

 REUSING RIVS FROM LAST STRESS PERIOD

 REUSING RIVS FROM LAST STRESS PERIOD

 REUSING RCHS FROM LAST STRESS PERIOD
 UBDSV06 SAVING              DRN IN MODEL GWF_1            PACKAGE GWF_1           CONNECTED TO MODEL GWF_1            PACKAGE DRN_SYS1         ON UNIT   1018 AT TIME STEP      1, STRESS PERIOD    262
 UBDSV06 SAVING              RIV IN MODEL GWF_1            PACKAGE GWF_1           CONNECTED TO MODEL GWF_1            PACKAGE RIV_SYS1         ON UNIT   1018 AT TIME STEP      1, STRESS PERIOD    262
 UBDSV06 SAVING              RIV IN MODEL GWF_1            PACKAGE GWF_1           CONNECTED TO MODEL GWF_1            PACKAGE RIV_SYS2         ON UNIT   1018 AT TIME STEP      1, STRESS PERIOD    262

 HEAD WILL BE SAVED ON UNIT 1017 AT END OF TIME STEP    1, STRESS PERIOD  262


  VOLUME BUDGET FOR ENTIRE MODEL AT END OF TIME STEP    1, STRESS PERIOD 262
  ---------------------------------------------------------------------------------------------------

     CUMULATIVE VOLUME      L**3       RATES FOR THIS TIME STEP      L**3/T          PACKAGE NAME    
     ------------------                 ------------------------                     ----------------

           IN:                                      IN:
           ---                                      ---
              STO-SS =      227438.1445                STO-SS =       7.7821E-03     STORAGE                          
                 DRN =           0.0000                   DRN =           0.0000     DRN_SYS1                         
                 RIV =      292937.9734                   RIV =        1275.8350     RIV_SYS1                         
                 RIV =           0.0000                   RIV =           0.0000     RIV_SYS2                         
                 RCH =           0.0000                   RCH =           0.0000     RCH_MSW                          

            TOTAL IN =      520376.1180              TOTAL IN =        1275.8428

          OUT:                                     OUT:
          ----                                     ----
              STO-SS =           0.0000                STO-SS =           0.0000     STORAGE                          
                 DRN =        7942.4500                   DRN =           9.3221     DRN_SYS1                         
                 RIV =      488226.0818                   RIV =        1226.8844     RIV_SYS1                         
                 RIV =       24209.2863                   RIV =          39.6363     RIV_SYS2                         
                 RCH =           0.0000                   RCH =           0.0000     RCH_MSW                          

           TOTAL OUT =      520377.8181             TOTAL OUT =        1275.8428

            IN - OUT =          -1.7001              IN - OUT =      -7.9312E-05

 PERCENT DISCREPANCY =          -0.00     PERCENT DISCREPANCY =          -0.00




         TIME SUMMARY AT END OF TIME STEP    1 IN STRESS PERIOD  262
                    SECONDS     MINUTES      HOURS       DAYS        YEARS
                    -----------------------------------------------------------
   TIME STEP LENGTH  86400.      1440.0      24.000      1.0000     2.73785E-03
 STRESS PERIOD TIME  86400.      1440.0      24.000      1.0000     2.73785E-03
         TOTAL TIME 2.26368E+07 3.77280E+05  6288.0      262.00     0.71732    


end timestep


start timestep kper="263" kstp="1" mode="normal"

 #Stressperiod Save Options

 BEGIN READING OUTPUT CONTROL FOR STRESS PERIOD 263
      ALL TIME STEPS WILL BE SAVED
      ALL TIME STEPS WILL BE SAVED

 END READING OUTPUT CONTROL FOR STRESS PERIOD 263


 PROCESSING STORAGE PERIOD DATA
 END PROCESSING STORAGE PERIOD DATA


 STRESS PERIOD 263 IS TRANSIENT


 REUSING DRNS FROM LAST STRESS PERIOD

 REUSING RIVS FROM LAST STRESS PERIOD

 REUSING RIVS FROM LAST STRESS PERIOD

 REUSING RCHS FROM LAST STRESS PERIOD
 UBDSV06 SAVING              DRN IN MODEL GWF_1            PACKAGE GWF_1           CONNECTED TO MODEL GWF_1            PACKAGE DRN_SYS1         ON UNIT   1018 AT TIME STEP      1, STRESS PERIOD    263
 UBDSV06 SAVING              RIV IN MODEL GWF_1            PACKAGE GWF_1           CONNECTED TO MODEL GWF_1            PACKAGE RIV_SYS1         ON UNIT   1018 AT TIME STEP      1, STRESS PERIOD    263
 UBDSV06 SAVING              RIV IN MODEL GWF_1            PACKAGE GWF_1           CONNECTED TO MODEL GWF_1            PACKAGE RIV_SYS2         ON UNIT   1018 AT TIME STEP      1, STRESS PERIOD    263

 HEAD WILL BE SAVED ON UNIT 1017 AT END OF TIME STEP    1, STRESS PERIOD  263


  VOLUME BUDGET FOR ENTIRE MODEL AT END OF TIME STEP    1, STRESS PERIOD 263
  ---------------------------------------------------------------------------------------------------

     CUMULATIVE VOLUME      L**3       RATES FOR THIS TIME STEP      L**3/T          PACKAGE NAME    
     ------------------                 ------------------------                     ----------------

           IN:                                      IN:
           ---                                      ---
              STO-SS =      227438.1519                STO-SS =       7.3755E-03     STORAGE                          
                 DRN =           0.0000                   DRN =           0.0000     DRN_SYS1                         
                 RIV =      294213.8086                   RIV =        1275.8351     RIV_SYS1                         
                 RIV =           0.0000                   RIV =           0.0000     RIV_SYS2                         
                 RCH =           0.0000                   RCH =           0.0000     RCH_MSW                          

            TOTAL IN =      521651.9605              TOTAL IN =        1275.8425

          OUT:                                     OUT:
          ----                                     ----
              STO-SS =           0.0000                STO-SS =           0.0000     STORAGE                          
                 DRN =        7951.7721                   DRN =           9.3221     DRN_SYS1                         
                 RIV =      489452.9660                   RIV =        1226.8842     RIV_SYS1                         
                 RIV =       24248.9225                   RIV =          39.6362     RIV_SYS2                         
                 RCH =           0.0000                   RCH =           0.0000     RCH_MSW                          

           TOTAL OUT =      521653.6606             TOTAL OUT =        1275.8426

            IN - OUT =          -1.7002              IN - OUT =      -7.5167E-05

 PERCENT DISCREPANCY =          -0.00     PERCENT DISCREPANCY =          -0.00




         TIME SUMMARY AT END OF TIME STEP    1 IN STRESS PERIOD  263
                    SECONDS     MINUTES      HOURS       DAYS        YEARS
                    -----------------------------------------------------------
   TIME STEP LENGTH  86400.      1440.0      24.000      1.0000     2.73785E-03
 STRESS PERIOD TIME  86400.      1440.0      24.000      1.0000     2.73785E-03
         TOTAL TIME 2.27232E+07 3.78720E+05  6312.0      263.00     0.72005    


end timestep


start timestep kper="264" kstp="1" mode="normal"

 #Stressperiod Save Options

 BEGIN READING OUTPUT CONTROL FOR STRESS PERIOD 264
      ALL TIME STEPS WILL BE SAVED
      ALL TIME STEPS WILL BE SAVED

 END READING OUTPUT CONTROL FOR STRESS PERIOD 264


 PROCESSING STORAGE PERIOD DATA
 END PROCESSING STORAGE PERIOD DATA


 STRESS PERIOD 264 IS TRANSIENT


 REUSING DRNS FROM LAST STRESS PERIOD

 REUSING RIVS FROM LAST STRESS PERIOD

 REUSING RIVS FROM LAST STRESS PERIOD

 REUSING RCHS FROM LAST STRESS PERIOD
 UBDSV06 SAVING              DRN IN MODEL GWF_1            PACKAGE GWF_1           CONNECTED TO MODEL GWF_1            PACKAGE DRN_SYS1         ON UNIT   1018 AT TIME STEP      1, STRESS PERIOD    264
 UBDSV06 SAVING              RIV IN MODEL GWF_1            PACKAGE GWF_1           CONNECTED TO MODEL GWF_1            PACKAGE RIV_SYS1         ON UNIT   1018 AT TIME STEP      1, STRESS PERIOD    264
 UBDSV06 SAVING              RIV IN MODEL GWF_1            PACKAGE GWF_1           CONNECTED TO MODEL GWF_1            PACKAGE RIV_SYS2         ON UNIT   1018 AT TIME STEP      1, STRESS PERIOD    264

 HEAD WILL BE SAVED ON UNIT 1017 AT END OF TIME STEP    1, STRESS PERIOD  264


  VOLUME BUDGET FOR ENTIRE MODEL AT END OF TIME STEP    1, STRESS PERIOD 264
  ---------------------------------------------------------------------------------------------------

     CUMULATIVE VOLUME      L**3       RATES FOR THIS TIME STEP      L**3/T          PACKAGE NAME    
     ------------------                 ------------------------                     ----------------

           IN:                                      IN:
           ---                                      ---
              STO-SS =      227438.1589                STO-SS =       6.9900E-03     STORAGE                          
                 DRN =           0.0000                   DRN =           0.0000     DRN_SYS1                         
                 RIV =      295489.6438                   RIV =        1275.8352     RIV_SYS1                         
                 RIV =           0.0000                   RIV =           0.0000     RIV_SYS2                         
                 RCH =           0.0000                   RCH =           0.0000     RCH_MSW                          

            TOTAL IN =      522927.8027              TOTAL IN =        1275.8422

          OUT:                                     OUT:
          ----                                     ----
              STO-SS =           0.0000                STO-SS =           0.0000     STORAGE                          
                 DRN =        7961.0943                   DRN =           9.3221     DRN_SYS1                         
                 RIV =      490679.8500                   RIV =        1226.8840     RIV_SYS1                         
                 RIV =       24288.5587                   RIV =          39.6362     RIV_SYS2                         
                 RCH =           0.0000                   RCH =           0.0000     RCH_MSW                          

           TOTAL OUT =      522929.5029             TOTAL OUT =        1275.8423

            IN - OUT =          -1.7002              IN - OUT =      -7.1239E-05

 PERCENT DISCREPANCY =          -0.00     PERCENT DISCREPANCY =          -0.00




         TIME SUMMARY AT END OF TIME STEP    1 IN STRESS PERIOD  264
                    SECONDS     MINUTES      HOURS       DAYS        YEARS
                    -----------------------------------------------------------
   TIME STEP LENGTH  86400.      1440.0      24.000      1.0000     2.73785E-03
 STRESS PERIOD TIME  86400.      1440.0      24.000      1.0000     2.73785E-03
         TOTAL TIME 2.28096E+07 3.80160E+05  6336.0      264.00     0.72279    


end timestep


start timestep kper="265" kstp="1" mode="normal"

 #Stressperiod Save Options

 BEGIN READING OUTPUT CONTROL FOR STRESS PERIOD 265
      ALL TIME STEPS WILL BE SAVED
      ALL TIME STEPS WILL BE SAVED

 END READING OUTPUT CONTROL FOR STRESS PERIOD 265


 PROCESSING STORAGE PERIOD DATA
 END PROCESSING STORAGE PERIOD DATA


 STRESS PERIOD 265 IS TRANSIENT


 REUSING DRNS FROM LAST STRESS PERIOD

 REUSING RIVS FROM LAST STRESS PERIOD

 REUSING RIVS FROM LAST STRESS PERIOD

 REUSING RCHS FROM LAST STRESS PERIOD
 UBDSV06 SAVING              DRN IN MODEL GWF_1            PACKAGE GWF_1           CONNECTED TO MODEL GWF_1            PACKAGE DRN_SYS1         ON UNIT   1018 AT TIME STEP      1, STRESS PERIOD    265
 UBDSV06 SAVING              RIV IN MODEL GWF_1            PACKAGE GWF_1           CONNECTED TO MODEL GWF_1            PACKAGE RIV_SYS1         ON UNIT   1018 AT TIME STEP      1, STRESS PERIOD    265
 UBDSV06 SAVING              RIV IN MODEL GWF_1            PACKAGE GWF_1           CONNECTED TO MODEL GWF_1            PACKAGE RIV_SYS2         ON UNIT   1018 AT TIME STEP      1, STRESS PERIOD    265

 HEAD WILL BE SAVED ON UNIT 1017 AT END OF TIME STEP    1, STRESS PERIOD  265


  VOLUME BUDGET FOR ENTIRE MODEL AT END OF TIME STEP    1, STRESS PERIOD 265
  ---------------------------------------------------------------------------------------------------

     CUMULATIVE VOLUME      L**3       RATES FOR THIS TIME STEP      L**3/T          PACKAGE NAME    
     ------------------                 ------------------------                     ----------------

           IN:                                      IN:
           ---                                      ---
              STO-SS =      227438.1655                STO-SS =       6.6247E-03     STORAGE                          
                 DRN =           0.0000                   DRN =           0.0000     DRN_SYS1                         
                 RIV =      296765.4792                   RIV =        1275.8354     RIV_SYS1                         
                 RIV =           0.0000                   RIV =           0.0000     RIV_SYS2                         
                 RCH =           0.0000                   RCH =           0.0000     RCH_MSW                          

            TOTAL IN =      524203.6447              TOTAL IN =        1275.8420

          OUT:                                     OUT:
          ----                                     ----
              STO-SS =           0.0000                STO-SS =           0.0000     STORAGE                          
                 DRN =        7970.4164                   DRN =           9.3221     DRN_SYS1                         
                 RIV =      491906.7337                   RIV =        1226.8837     RIV_SYS1                         
                 RIV =       24328.1949                   RIV =          39.6362     RIV_SYS2                         
                 RCH =           0.0000                   RCH =           0.0000     RCH_MSW                          

           TOTAL OUT =      524205.3450             TOTAL OUT =        1275.8421

            IN - OUT =          -1.7003              IN - OUT =      -6.7516E-05

 PERCENT DISCREPANCY =          -0.00     PERCENT DISCREPANCY =          -0.00




         TIME SUMMARY AT END OF TIME STEP    1 IN STRESS PERIOD  265
                    SECONDS     MINUTES      HOURS       DAYS        YEARS
                    -----------------------------------------------------------
   TIME STEP LENGTH  86400.      1440.0      24.000      1.0000     2.73785E-03
 STRESS PERIOD TIME  86400.      1440.0      24.000      1.0000     2.73785E-03
         TOTAL TIME 2.28960E+07 3.81600E+05  6360.0      265.00     0.72553    


end timestep


start timestep kper="266" kstp="1" mode="normal"

 #Stressperiod Save Options

 BEGIN READING OUTPUT CONTROL FOR STRESS PERIOD 266
      ALL TIME STEPS WILL BE SAVED
      ALL TIME STEPS WILL BE SAVED

 END READING OUTPUT CONTROL FOR STRESS PERIOD 266


 PROCESSING STORAGE PERIOD DATA
 END PROCESSING STORAGE PERIOD DATA


 STRESS PERIOD 266 IS TRANSIENT


 REUSING DRNS FROM LAST STRESS PERIOD

 REUSING RIVS FROM LAST STRESS PERIOD

 REUSING RIVS FROM LAST STRESS PERIOD

 REUSING RCHS FROM LAST STRESS PERIOD
 UBDSV06 SAVING              DRN IN MODEL GWF_1            PACKAGE GWF_1           CONNECTED TO MODEL GWF_1            PACKAGE DRN_SYS1         ON UNIT   1018 AT TIME STEP      1, STRESS PERIOD    266
 UBDSV06 SAVING              RIV IN MODEL GWF_1            PACKAGE GWF_1           CONNECTED TO MODEL GWF_1            PACKAGE RIV_SYS1         ON UNIT   1018 AT TIME STEP      1, STRESS PERIOD    266
 UBDSV06 SAVING              RIV IN MODEL GWF_1            PACKAGE GWF_1           CONNECTED TO MODEL GWF_1            PACKAGE RIV_SYS2         ON UNIT   1018 AT TIME STEP      1, STRESS PERIOD    266

 HEAD WILL BE SAVED ON UNIT 1017 AT END OF TIME STEP    1, STRESS PERIOD  266


  VOLUME BUDGET FOR ENTIRE MODEL AT END OF TIME STEP    1, STRESS PERIOD 266
  ---------------------------------------------------------------------------------------------------

     CUMULATIVE VOLUME      L**3       RATES FOR THIS TIME STEP      L**3/T          PACKAGE NAME    
     ------------------                 ------------------------                     ----------------

           IN:                                      IN:
           ---                                      ---
              STO-SS =      227438.1718                STO-SS =       6.2785E-03     STORAGE                          
                 DRN =           0.0000                   DRN =           0.0000     DRN_SYS1                         
                 RIV =      298041.3146                   RIV =        1275.8355     RIV_SYS1                         
                 RIV =           0.0000                   RIV =           0.0000     RIV_SYS2                         
                 RCH =           0.0000                   RCH =           0.0000     RCH_MSW                          

            TOTAL IN =      525479.4864              TOTAL IN =        1275.8417

          OUT:                                     OUT:
          ----                                     ----
              STO-SS =           0.0000                STO-SS =           0.0000     STORAGE                          
                 DRN =        7979.7385                   DRN =           9.3221     DRN_SYS1                         
                 RIV =      493133.6173                   RIV =        1226.8835     RIV_SYS1                         
                 RIV =       24367.8311                   RIV =          39.6362     RIV_SYS2                         
                 RCH =           0.0000                   RCH =           0.0000     RCH_MSW                          

           TOTAL OUT =      525481.1868             TOTAL OUT =        1275.8418

            IN - OUT =          -1.7004              IN - OUT =      -6.3987E-05

 PERCENT DISCREPANCY =          -0.00     PERCENT DISCREPANCY =          -0.00




         TIME SUMMARY AT END OF TIME STEP    1 IN STRESS PERIOD  266
                    SECONDS     MINUTES      HOURS       DAYS        YEARS
                    -----------------------------------------------------------
   TIME STEP LENGTH  86400.      1440.0      24.000      1.0000     2.73785E-03
 STRESS PERIOD TIME  86400.      1440.0      24.000      1.0000     2.73785E-03
         TOTAL TIME 2.29824E+07 3.83040E+05  6384.0      266.00     0.72827    


end timestep


start timestep kper="267" kstp="1" mode="normal"

 #Stressperiod Save Options

 BEGIN READING OUTPUT CONTROL FOR STRESS PERIOD 267
      ALL TIME STEPS WILL BE SAVED
      ALL TIME STEPS WILL BE SAVED

 END READING OUTPUT CONTROL FOR STRESS PERIOD 267


 PROCESSING STORAGE PERIOD DATA
 END PROCESSING STORAGE PERIOD DATA


 STRESS PERIOD 267 IS TRANSIENT


 REUSING DRNS FROM LAST STRESS PERIOD

 REUSING RIVS FROM LAST STRESS PERIOD

 REUSING RIVS FROM LAST STRESS PERIOD

 REUSING RCHS FROM LAST STRESS PERIOD
 UBDSV06 SAVING              DRN IN MODEL GWF_1            PACKAGE GWF_1           CONNECTED TO MODEL GWF_1            PACKAGE DRN_SYS1         ON UNIT   1018 AT TIME STEP      1, STRESS PERIOD    267
 UBDSV06 SAVING              RIV IN MODEL GWF_1            PACKAGE GWF_1           CONNECTED TO MODEL GWF_1            PACKAGE RIV_SYS1         ON UNIT   1018 AT TIME STEP      1, STRESS PERIOD    267
 UBDSV06 SAVING              RIV IN MODEL GWF_1            PACKAGE GWF_1           CONNECTED TO MODEL GWF_1            PACKAGE RIV_SYS2         ON UNIT   1018 AT TIME STEP      1, STRESS PERIOD    267

 HEAD WILL BE SAVED ON UNIT 1017 AT END OF TIME STEP    1, STRESS PERIOD  267


  VOLUME BUDGET FOR ENTIRE MODEL AT END OF TIME STEP    1, STRESS PERIOD 267
  ---------------------------------------------------------------------------------------------------

     CUMULATIVE VOLUME      L**3       RATES FOR THIS TIME STEP      L**3/T          PACKAGE NAME    
     ------------------                 ------------------------                     ----------------

           IN:                                      IN:
           ---                                      ---
              STO-SS =      227438.1777                STO-SS =       5.9504E-03     STORAGE                          
                 DRN =           0.0000                   DRN =           0.0000     DRN_SYS1                         
                 RIV =      299317.1502                   RIV =        1275.8356     RIV_SYS1                         
                 RIV =           0.0000                   RIV =           0.0000     RIV_SYS2                         
                 RCH =           0.0000                   RCH =           0.0000     RCH_MSW                          

            TOTAL IN =      526755.3279              TOTAL IN =        1275.8415

          OUT:                                     OUT:
          ----                                     ----
              STO-SS =           0.0000                STO-SS =           0.0000     STORAGE                          
                 DRN =        7989.0605                   DRN =           9.3221     DRN_SYS1                         
                 RIV =      494360.5006                   RIV =        1226.8833     RIV_SYS1                         
                 RIV =       24407.4672                   RIV =          39.6362     RIV_SYS2                         
                 RCH =           0.0000                   RCH =           0.0000     RCH_MSW                          

           TOTAL OUT =      526757.0284             TOTAL OUT =        1275.8416

            IN - OUT =          -1.7004              IN - OUT =      -6.0643E-05

 PERCENT DISCREPANCY =          -0.00     PERCENT DISCREPANCY =          -0.00




         TIME SUMMARY AT END OF TIME STEP    1 IN STRESS PERIOD  267
                    SECONDS     MINUTES      HOURS       DAYS        YEARS
                    -----------------------------------------------------------
   TIME STEP LENGTH  86400.      1440.0      24.000      1.0000     2.73785E-03
 STRESS PERIOD TIME  86400.      1440.0      24.000      1.0000     2.73785E-03
         TOTAL TIME 2.30688E+07 3.84480E+05  6408.0      267.00     0.73101    


end timestep


start timestep kper="268" kstp="1" mode="normal"

 #Stressperiod Save Options

 BEGIN READING OUTPUT CONTROL FOR STRESS PERIOD 268
      ALL TIME STEPS WILL BE SAVED
      ALL TIME STEPS WILL BE SAVED

 END READING OUTPUT CONTROL FOR STRESS PERIOD 268


 PROCESSING STORAGE PERIOD DATA
 END PROCESSING STORAGE PERIOD DATA


 STRESS PERIOD 268 IS TRANSIENT


 REUSING DRNS FROM LAST STRESS PERIOD

 REUSING RIVS FROM LAST STRESS PERIOD

 REUSING RIVS FROM LAST STRESS PERIOD

 REUSING RCHS FROM LAST STRESS PERIOD
 UBDSV06 SAVING              DRN IN MODEL GWF_1            PACKAGE GWF_1           CONNECTED TO MODEL GWF_1            PACKAGE DRN_SYS1         ON UNIT   1018 AT TIME STEP      1, STRESS PERIOD    268
 UBDSV06 SAVING              RIV IN MODEL GWF_1            PACKAGE GWF_1           CONNECTED TO MODEL GWF_1            PACKAGE RIV_SYS1         ON UNIT   1018 AT TIME STEP      1, STRESS PERIOD    268
 UBDSV06 SAVING              RIV IN MODEL GWF_1            PACKAGE GWF_1           CONNECTED TO MODEL GWF_1            PACKAGE RIV_SYS2         ON UNIT   1018 AT TIME STEP      1, STRESS PERIOD    268

 HEAD WILL BE SAVED ON UNIT 1017 AT END OF TIME STEP    1, STRESS PERIOD  268


  VOLUME BUDGET FOR ENTIRE MODEL AT END OF TIME STEP    1, STRESS PERIOD 268
  ---------------------------------------------------------------------------------------------------

     CUMULATIVE VOLUME      L**3       RATES FOR THIS TIME STEP      L**3/T          PACKAGE NAME    
     ------------------                 ------------------------                     ----------------

           IN:                                      IN:
           ---                                      ---
              STO-SS =      227438.1834                STO-SS =       5.6395E-03     STORAGE                          
                 DRN =           0.0000                   DRN =           0.0000     DRN_SYS1                         
                 RIV =      300592.9859                   RIV =        1275.8357     RIV_SYS1                         
                 RIV =           0.0000                   RIV =           0.0000     RIV_SYS2                         
                 RCH =           0.0000                   RCH =           0.0000     RCH_MSW                          

            TOTAL IN =      528031.1693              TOTAL IN =        1275.8413

          OUT:                                     OUT:
          ----                                     ----
              STO-SS =           0.0000                STO-SS =           0.0000     STORAGE                          
                 DRN =        7998.3826                   DRN =           9.3221     DRN_SYS1                         
                 RIV =      495587.3838                   RIV =        1226.8832     RIV_SYS1                         
                 RIV =       24447.1034                   RIV =          39.6361     RIV_SYS2                         
                 RCH =           0.0000                   RCH =           0.0000     RCH_MSW                          

           TOTAL OUT =      528032.8697             TOTAL OUT =        1275.8414

            IN - OUT =          -1.7005              IN - OUT =      -5.7474E-05

 PERCENT DISCREPANCY =          -0.00     PERCENT DISCREPANCY =          -0.00




         TIME SUMMARY AT END OF TIME STEP    1 IN STRESS PERIOD  268
                    SECONDS     MINUTES      HOURS       DAYS        YEARS
                    -----------------------------------------------------------
   TIME STEP LENGTH  86400.      1440.0      24.000      1.0000     2.73785E-03
 STRESS PERIOD TIME  86400.      1440.0      24.000      1.0000     2.73785E-03
         TOTAL TIME 2.31552E+07 3.85920E+05  6432.0      268.00     0.73374    


end timestep


start timestep kper="269" kstp="1" mode="normal"

 #Stressperiod Save Options

 BEGIN READING OUTPUT CONTROL FOR STRESS PERIOD 269
      ALL TIME STEPS WILL BE SAVED
      ALL TIME STEPS WILL BE SAVED

 END READING OUTPUT CONTROL FOR STRESS PERIOD 269


 PROCESSING STORAGE PERIOD DATA
 END PROCESSING STORAGE PERIOD DATA


 STRESS PERIOD 269 IS TRANSIENT


 REUSING DRNS FROM LAST STRESS PERIOD

 REUSING RIVS FROM LAST STRESS PERIOD

 REUSING RIVS FROM LAST STRESS PERIOD

 REUSING RCHS FROM LAST STRESS PERIOD
 UBDSV06 SAVING              DRN IN MODEL GWF_1            PACKAGE GWF_1           CONNECTED TO MODEL GWF_1            PACKAGE DRN_SYS1         ON UNIT   1018 AT TIME STEP      1, STRESS PERIOD    269
 UBDSV06 SAVING              RIV IN MODEL GWF_1            PACKAGE GWF_1           CONNECTED TO MODEL GWF_1            PACKAGE RIV_SYS1         ON UNIT   1018 AT TIME STEP      1, STRESS PERIOD    269
 UBDSV06 SAVING              RIV IN MODEL GWF_1            PACKAGE GWF_1           CONNECTED TO MODEL GWF_1            PACKAGE RIV_SYS2         ON UNIT   1018 AT TIME STEP      1, STRESS PERIOD    269

 HEAD WILL BE SAVED ON UNIT 1017 AT END OF TIME STEP    1, STRESS PERIOD  269


  VOLUME BUDGET FOR ENTIRE MODEL AT END OF TIME STEP    1, STRESS PERIOD 269
  ---------------------------------------------------------------------------------------------------

     CUMULATIVE VOLUME      L**3       RATES FOR THIS TIME STEP      L**3/T          PACKAGE NAME    
     ------------------                 ------------------------                     ----------------

           IN:                                      IN:
           ---                                      ---
              STO-SS =      227438.1887                STO-SS =       5.3447E-03     STORAGE                          
                 DRN =           0.0000                   DRN =           0.0000     DRN_SYS1                         
                 RIV =      301868.8216                   RIV =        1275.8358     RIV_SYS1                         
                 RIV =           0.0000                   RIV =           0.0000     RIV_SYS2                         
                 RCH =           0.0000                   RCH =           0.0000     RCH_MSW                          

            TOTAL IN =      529307.0104              TOTAL IN =        1275.8411

          OUT:                                     OUT:
          ----                                     ----
              STO-SS =           0.0000                STO-SS =           0.0000     STORAGE                          
                 DRN =        8007.7047                   DRN =           9.3221     DRN_SYS1                         
                 RIV =      496814.2668                   RIV =        1226.8830     RIV_SYS1                         
                 RIV =       24486.7395                   RIV =          39.6361     RIV_SYS2                         
                 RCH =           0.0000                   RCH =           0.0000     RCH_MSW                          

           TOTAL OUT =      529308.7109             TOTAL OUT =        1275.8412

            IN - OUT =          -1.7005              IN - OUT =      -5.4471E-05

 PERCENT DISCREPANCY =          -0.00     PERCENT DISCREPANCY =          -0.00




         TIME SUMMARY AT END OF TIME STEP    1 IN STRESS PERIOD  269
                    SECONDS     MINUTES      HOURS       DAYS        YEARS
                    -----------------------------------------------------------
   TIME STEP LENGTH  86400.      1440.0      24.000      1.0000     2.73785E-03
 STRESS PERIOD TIME  86400.      1440.0      24.000      1.0000     2.73785E-03
         TOTAL TIME 2.32416E+07 3.87360E+05  6456.0      269.00     0.73648    


end timestep


start timestep kper="270" kstp="1" mode="normal"

 #Stressperiod Save Options

 BEGIN READING OUTPUT CONTROL FOR STRESS PERIOD 270
      ALL TIME STEPS WILL BE SAVED
      ALL TIME STEPS WILL BE SAVED

 END READING OUTPUT CONTROL FOR STRESS PERIOD 270


 PROCESSING STORAGE PERIOD DATA
 END PROCESSING STORAGE PERIOD DATA


 STRESS PERIOD 270 IS TRANSIENT


 REUSING DRNS FROM LAST STRESS PERIOD

 REUSING RIVS FROM LAST STRESS PERIOD

 REUSING RIVS FROM LAST STRESS PERIOD

 REUSING RCHS FROM LAST STRESS PERIOD
 UBDSV06 SAVING              DRN IN MODEL GWF_1            PACKAGE GWF_1           CONNECTED TO MODEL GWF_1            PACKAGE DRN_SYS1         ON UNIT   1018 AT TIME STEP      1, STRESS PERIOD    270
 UBDSV06 SAVING              RIV IN MODEL GWF_1            PACKAGE GWF_1           CONNECTED TO MODEL GWF_1            PACKAGE RIV_SYS1         ON UNIT   1018 AT TIME STEP      1, STRESS PERIOD    270
 UBDSV06 SAVING              RIV IN MODEL GWF_1            PACKAGE GWF_1           CONNECTED TO MODEL GWF_1            PACKAGE RIV_SYS2         ON UNIT   1018 AT TIME STEP      1, STRESS PERIOD    270

 HEAD WILL BE SAVED ON UNIT 1017 AT END OF TIME STEP    1, STRESS PERIOD  270


  VOLUME BUDGET FOR ENTIRE MODEL AT END OF TIME STEP    1, STRESS PERIOD 270
  ---------------------------------------------------------------------------------------------------

     CUMULATIVE VOLUME      L**3       RATES FOR THIS TIME STEP      L**3/T          PACKAGE NAME    
     ------------------                 ------------------------                     ----------------

           IN:                                      IN:
           ---                                      ---
              STO-SS =      227438.1938                STO-SS =       5.0654E-03     STORAGE                          
                 DRN =           0.0000                   DRN =           0.0000     DRN_SYS1                         
                 RIV =      303144.6575                   RIV =        1275.8359     RIV_SYS1                         
                 RIV =           0.0000                   RIV =           0.0000     RIV_SYS2                         
                 RCH =           0.0000                   RCH =           0.0000     RCH_MSW                          

            TOTAL IN =      530582.8513              TOTAL IN =        1275.8409

          OUT:                                     OUT:
          ----                                     ----
              STO-SS =           0.0000                STO-SS =           0.0000     STORAGE                          
                 DRN =        8017.0267                   DRN =           9.3221     DRN_SYS1                         
                 RIV =      498041.1496                   RIV =        1226.8828     RIV_SYS1                         
                 RIV =       24526.3756                   RIV =          39.6361     RIV_SYS2                         
                 RCH =           0.0000                   RCH =           0.0000     RCH_MSW                          

           TOTAL OUT =      530584.5519             TOTAL OUT =        1275.8410

            IN - OUT =          -1.7006              IN - OUT =      -5.1624E-05

 PERCENT DISCREPANCY =          -0.00     PERCENT DISCREPANCY =          -0.00




         TIME SUMMARY AT END OF TIME STEP    1 IN STRESS PERIOD  270
                    SECONDS     MINUTES      HOURS       DAYS        YEARS
                    -----------------------------------------------------------
   TIME STEP LENGTH  86400.      1440.0      24.000      1.0000     2.73785E-03
 STRESS PERIOD TIME  86400.      1440.0      24.000      1.0000     2.73785E-03
         TOTAL TIME 2.33280E+07 3.88800E+05  6480.0      270.00     0.73922    


end timestep


start timestep kper="271" kstp="1" mode="normal"

 #Stressperiod Save Options

 BEGIN READING OUTPUT CONTROL FOR STRESS PERIOD 271
      ALL TIME STEPS WILL BE SAVED
      ALL TIME STEPS WILL BE SAVED

 END READING OUTPUT CONTROL FOR STRESS PERIOD 271


 PROCESSING STORAGE PERIOD DATA
 END PROCESSING STORAGE PERIOD DATA


 STRESS PERIOD 271 IS TRANSIENT


 REUSING DRNS FROM LAST STRESS PERIOD

 REUSING RIVS FROM LAST STRESS PERIOD

 REUSING RIVS FROM LAST STRESS PERIOD

 REUSING RCHS FROM LAST STRESS PERIOD
 UBDSV06 SAVING              DRN IN MODEL GWF_1            PACKAGE GWF_1           CONNECTED TO MODEL GWF_1            PACKAGE DRN_SYS1         ON UNIT   1018 AT TIME STEP      1, STRESS PERIOD    271
 UBDSV06 SAVING              RIV IN MODEL GWF_1            PACKAGE GWF_1           CONNECTED TO MODEL GWF_1            PACKAGE RIV_SYS1         ON UNIT   1018 AT TIME STEP      1, STRESS PERIOD    271
 UBDSV06 SAVING              RIV IN MODEL GWF_1            PACKAGE GWF_1           CONNECTED TO MODEL GWF_1            PACKAGE RIV_SYS2         ON UNIT   1018 AT TIME STEP      1, STRESS PERIOD    271

 HEAD WILL BE SAVED ON UNIT 1017 AT END OF TIME STEP    1, STRESS PERIOD  271


  VOLUME BUDGET FOR ENTIRE MODEL AT END OF TIME STEP    1, STRESS PERIOD 271
  ---------------------------------------------------------------------------------------------------

     CUMULATIVE VOLUME      L**3       RATES FOR THIS TIME STEP      L**3/T          PACKAGE NAME    
     ------------------                 ------------------------                     ----------------

           IN:                                      IN:
           ---                                      ---
              STO-SS =      227438.1986                STO-SS =       4.8007E-03     STORAGE                          
                 DRN =           0.0000                   DRN =           0.0000     DRN_SYS1                         
                 RIV =      304420.4934                   RIV =        1275.8359     RIV_SYS1                         
                 RIV =           0.0000                   RIV =           0.0000     RIV_SYS2                         
                 RCH =           0.0000                   RCH =           0.0000     RCH_MSW                          

            TOTAL IN =      531858.6920              TOTAL IN =        1275.8407

          OUT:                                     OUT:
          ----                                     ----
              STO-SS =           0.0000                STO-SS =           0.0000     STORAGE                          
                 DRN =        8026.3488                   DRN =           9.3220     DRN_SYS1                         
                 RIV =      499268.0322                   RIV =        1226.8827     RIV_SYS1                         
                 RIV =       24566.0116                   RIV =          39.6361     RIV_SYS2                         
                 RCH =           0.0000                   RCH =           0.0000     RCH_MSW                          

           TOTAL OUT =      531860.3927             TOTAL OUT =        1275.8408

            IN - OUT =          -1.7006              IN - OUT =      -4.8927E-05

 PERCENT DISCREPANCY =          -0.00     PERCENT DISCREPANCY =          -0.00




         TIME SUMMARY AT END OF TIME STEP    1 IN STRESS PERIOD  271
                    SECONDS     MINUTES      HOURS       DAYS        YEARS
                    -----------------------------------------------------------
   TIME STEP LENGTH  86400.      1440.0      24.000      1.0000     2.73785E-03
 STRESS PERIOD TIME  86400.      1440.0      24.000      1.0000     2.73785E-03
         TOTAL TIME 2.34144E+07 3.90240E+05  6504.0      271.00     0.74196    


end timestep


start timestep kper="272" kstp="1" mode="normal"

 #Stressperiod Save Options

 BEGIN READING OUTPUT CONTROL FOR STRESS PERIOD 272
      ALL TIME STEPS WILL BE SAVED
      ALL TIME STEPS WILL BE SAVED

 END READING OUTPUT CONTROL FOR STRESS PERIOD 272


 PROCESSING STORAGE PERIOD DATA
 END PROCESSING STORAGE PERIOD DATA


 STRESS PERIOD 272 IS TRANSIENT


 REUSING DRNS FROM LAST STRESS PERIOD

 REUSING RIVS FROM LAST STRESS PERIOD

 REUSING RIVS FROM LAST STRESS PERIOD

 REUSING RCHS FROM LAST STRESS PERIOD
 UBDSV06 SAVING              DRN IN MODEL GWF_1            PACKAGE GWF_1           CONNECTED TO MODEL GWF_1            PACKAGE DRN_SYS1         ON UNIT   1018 AT TIME STEP      1, STRESS PERIOD    272
 UBDSV06 SAVING              RIV IN MODEL GWF_1            PACKAGE GWF_1           CONNECTED TO MODEL GWF_1            PACKAGE RIV_SYS1         ON UNIT   1018 AT TIME STEP      1, STRESS PERIOD    272
 UBDSV06 SAVING              RIV IN MODEL GWF_1            PACKAGE GWF_1           CONNECTED TO MODEL GWF_1            PACKAGE RIV_SYS2         ON UNIT   1018 AT TIME STEP      1, STRESS PERIOD    272

 HEAD WILL BE SAVED ON UNIT 1017 AT END OF TIME STEP    1, STRESS PERIOD  272


  VOLUME BUDGET FOR ENTIRE MODEL AT END OF TIME STEP    1, STRESS PERIOD 272
  ---------------------------------------------------------------------------------------------------

     CUMULATIVE VOLUME      L**3       RATES FOR THIS TIME STEP      L**3/T          PACKAGE NAME    
     ------------------                 ------------------------                     ----------------

           IN:                                      IN:
           ---                                      ---
              STO-SS =      227438.2031                STO-SS =       4.5499E-03     STORAGE                          
                 DRN =           0.0000                   DRN =           0.0000     DRN_SYS1                         
                 RIV =      305696.3295                   RIV =        1275.8360     RIV_SYS1                         
                 RIV =           0.0000                   RIV =           0.0000     RIV_SYS2                         
                 RCH =           0.0000                   RCH =           0.0000     RCH_MSW                          

            TOTAL IN =      533134.5326              TOTAL IN =        1275.8406

          OUT:                                     OUT:
          ----                                     ----
              STO-SS =           0.0000                STO-SS =           0.0000     STORAGE                          
                 DRN =        8035.6708                   DRN =           9.3220     DRN_SYS1                         
                 RIV =      500494.9148                   RIV =        1226.8825     RIV_SYS1                         
                 RIV =       24605.6477                   RIV =          39.6361     RIV_SYS2                         
                 RCH =           0.0000                   RCH =           0.0000     RCH_MSW                          

           TOTAL OUT =      533136.2333             TOTAL OUT =        1275.8406

            IN - OUT =          -1.7007              IN - OUT =      -4.6371E-05

 PERCENT DISCREPANCY =          -0.00     PERCENT DISCREPANCY =          -0.00




         TIME SUMMARY AT END OF TIME STEP    1 IN STRESS PERIOD  272
                    SECONDS     MINUTES      HOURS       DAYS        YEARS
                    -----------------------------------------------------------
   TIME STEP LENGTH  86400.      1440.0      24.000      1.0000     2.73785E-03
 STRESS PERIOD TIME  86400.      1440.0      24.000      1.0000     2.73785E-03
         TOTAL TIME 2.35008E+07 3.91680E+05  6528.0      272.00     0.74470    


end timestep


start timestep kper="273" kstp="1" mode="normal"

 #Stressperiod Save Options

 BEGIN READING OUTPUT CONTROL FOR STRESS PERIOD 273
      ALL TIME STEPS WILL BE SAVED
      ALL TIME STEPS WILL BE SAVED

 END READING OUTPUT CONTROL FOR STRESS PERIOD 273


 PROCESSING STORAGE PERIOD DATA
 END PROCESSING STORAGE PERIOD DATA


 STRESS PERIOD 273 IS TRANSIENT


 REUSING DRNS FROM LAST STRESS PERIOD

 REUSING RIVS FROM LAST STRESS PERIOD

 REUSING RIVS FROM LAST STRESS PERIOD

 REUSING RCHS FROM LAST STRESS PERIOD
 UBDSV06 SAVING              DRN IN MODEL GWF_1            PACKAGE GWF_1           CONNECTED TO MODEL GWF_1            PACKAGE DRN_SYS1         ON UNIT   1018 AT TIME STEP      1, STRESS PERIOD    273
 UBDSV06 SAVING              RIV IN MODEL GWF_1            PACKAGE GWF_1           CONNECTED TO MODEL GWF_1            PACKAGE RIV_SYS1         ON UNIT   1018 AT TIME STEP      1, STRESS PERIOD    273
 UBDSV06 SAVING              RIV IN MODEL GWF_1            PACKAGE GWF_1           CONNECTED TO MODEL GWF_1            PACKAGE RIV_SYS2         ON UNIT   1018 AT TIME STEP      1, STRESS PERIOD    273

 HEAD WILL BE SAVED ON UNIT 1017 AT END OF TIME STEP    1, STRESS PERIOD  273


  VOLUME BUDGET FOR ENTIRE MODEL AT END OF TIME STEP    1, STRESS PERIOD 273
  ---------------------------------------------------------------------------------------------------

     CUMULATIVE VOLUME      L**3       RATES FOR THIS TIME STEP      L**3/T          PACKAGE NAME    
     ------------------                 ------------------------                     ----------------

           IN:                                      IN:
           ---                                      ---
              STO-SS =      227438.2075                STO-SS =       4.3121E-03     STORAGE                          
                 DRN =           0.0000                   DRN =           0.0000     DRN_SYS1                         
                 RIV =      306972.1656                   RIV =        1275.8361     RIV_SYS1                         
                 RIV =           0.0000                   RIV =           0.0000     RIV_SYS2                         
                 RCH =           0.0000                   RCH =           0.0000     RCH_MSW                          

            TOTAL IN =      534410.3730              TOTAL IN =        1275.8404

          OUT:                                     OUT:
          ----                                     ----
              STO-SS =           0.0000                STO-SS =           0.0000     STORAGE                          
                 DRN =        8044.9929                   DRN =           9.3220     DRN_SYS1                         
                 RIV =      501721.7971                   RIV =        1226.8824     RIV_SYS1                         
                 RIV =       24645.2838                   RIV =          39.6360     RIV_SYS2                         
                 RCH =           0.0000                   RCH =           0.0000     RCH_MSW                          

           TOTAL OUT =      534412.0738             TOTAL OUT =        1275.8405

            IN - OUT =          -1.7007              IN - OUT =      -4.3948E-05

 PERCENT DISCREPANCY =          -0.00     PERCENT DISCREPANCY =          -0.00




         TIME SUMMARY AT END OF TIME STEP    1 IN STRESS PERIOD  273
                    SECONDS     MINUTES      HOURS       DAYS        YEARS
                    -----------------------------------------------------------
   TIME STEP LENGTH  86400.      1440.0      24.000      1.0000     2.73785E-03
 STRESS PERIOD TIME  86400.      1440.0      24.000      1.0000     2.73785E-03
         TOTAL TIME 2.35872E+07 3.93120E+05  6552.0      273.00     0.74743    


end timestep


start timestep kper="274" kstp="1" mode="normal"

 #Stressperiod Save Options

 BEGIN READING OUTPUT CONTROL FOR STRESS PERIOD 274
      ALL TIME STEPS WILL BE SAVED
      ALL TIME STEPS WILL BE SAVED

 END READING OUTPUT CONTROL FOR STRESS PERIOD 274


 PROCESSING STORAGE PERIOD DATA
 END PROCESSING STORAGE PERIOD DATA


 STRESS PERIOD 274 IS TRANSIENT


 REUSING DRNS FROM LAST STRESS PERIOD

 REUSING RIVS FROM LAST STRESS PERIOD

 REUSING RIVS FROM LAST STRESS PERIOD

 REUSING RCHS FROM LAST STRESS PERIOD
 UBDSV06 SAVING              DRN IN MODEL GWF_1            PACKAGE GWF_1           CONNECTED TO MODEL GWF_1            PACKAGE DRN_SYS1         ON UNIT   1018 AT TIME STEP      1, STRESS PERIOD    274
 UBDSV06 SAVING              RIV IN MODEL GWF_1            PACKAGE GWF_1           CONNECTED TO MODEL GWF_1            PACKAGE RIV_SYS1         ON UNIT   1018 AT TIME STEP      1, STRESS PERIOD    274
 UBDSV06 SAVING              RIV IN MODEL GWF_1            PACKAGE GWF_1           CONNECTED TO MODEL GWF_1            PACKAGE RIV_SYS2         ON UNIT   1018 AT TIME STEP      1, STRESS PERIOD    274

 HEAD WILL BE SAVED ON UNIT 1017 AT END OF TIME STEP    1, STRESS PERIOD  274


  VOLUME BUDGET FOR ENTIRE MODEL AT END OF TIME STEP    1, STRESS PERIOD 274
  ---------------------------------------------------------------------------------------------------

     CUMULATIVE VOLUME      L**3       RATES FOR THIS TIME STEP      L**3/T          PACKAGE NAME    
     ------------------                 ------------------------                     ----------------

           IN:                                      IN:
           ---                                      ---
              STO-SS =      227438.2115                STO-SS =       4.0867E-03     STORAGE                          
                 DRN =           0.0000                   DRN =           0.0000     DRN_SYS1                         
                 RIV =      308248.0017                   RIV =        1275.8362     RIV_SYS1                         
                 RIV =           0.0000                   RIV =           0.0000     RIV_SYS2                         
                 RCH =           0.0000                   RCH =           0.0000     RCH_MSW                          

            TOTAL IN =      535686.2133              TOTAL IN =        1275.8403

          OUT:                                     OUT:
          ----                                     ----
              STO-SS =           0.0000                STO-SS =           0.0000     STORAGE                          
                 DRN =        8054.3149                   DRN =           9.3220     DRN_SYS1                         
                 RIV =      502948.6794                   RIV =        1226.8822     RIV_SYS1                         
                 RIV =       24684.9198                   RIV =          39.6360     RIV_SYS2                         
                 RCH =           0.0000                   RCH =           0.0000     RCH_MSW                          

           TOTAL OUT =      535687.9141             TOTAL OUT =        1275.8403

            IN - OUT =          -1.7008              IN - OUT =      -4.1652E-05

 PERCENT DISCREPANCY =          -0.00     PERCENT DISCREPANCY =          -0.00




         TIME SUMMARY AT END OF TIME STEP    1 IN STRESS PERIOD  274
                    SECONDS     MINUTES      HOURS       DAYS        YEARS
                    -----------------------------------------------------------
   TIME STEP LENGTH  86400.      1440.0      24.000      1.0000     2.73785E-03
 STRESS PERIOD TIME  86400.      1440.0      24.000      1.0000     2.73785E-03
         TOTAL TIME 2.36736E+07 3.94560E+05  6576.0      274.00     0.75017    


end timestep


start timestep kper="275" kstp="1" mode="normal"

 #Stressperiod Save Options

 BEGIN READING OUTPUT CONTROL FOR STRESS PERIOD 275
      ALL TIME STEPS WILL BE SAVED
      ALL TIME STEPS WILL BE SAVED

 END READING OUTPUT CONTROL FOR STRESS PERIOD 275


 PROCESSING STORAGE PERIOD DATA
 END PROCESSING STORAGE PERIOD DATA


 STRESS PERIOD 275 IS TRANSIENT


 REUSING DRNS FROM LAST STRESS PERIOD

 REUSING RIVS FROM LAST STRESS PERIOD

 REUSING RIVS FROM LAST STRESS PERIOD

 REUSING RCHS FROM LAST STRESS PERIOD
 UBDSV06 SAVING              DRN IN MODEL GWF_1            PACKAGE GWF_1           CONNECTED TO MODEL GWF_1            PACKAGE DRN_SYS1         ON UNIT   1018 AT TIME STEP      1, STRESS PERIOD    275
 UBDSV06 SAVING              RIV IN MODEL GWF_1            PACKAGE GWF_1           CONNECTED TO MODEL GWF_1            PACKAGE RIV_SYS1         ON UNIT   1018 AT TIME STEP      1, STRESS PERIOD    275
 UBDSV06 SAVING              RIV IN MODEL GWF_1            PACKAGE GWF_1           CONNECTED TO MODEL GWF_1            PACKAGE RIV_SYS2         ON UNIT   1018 AT TIME STEP      1, STRESS PERIOD    275

 HEAD WILL BE SAVED ON UNIT 1017 AT END OF TIME STEP    1, STRESS PERIOD  275


  VOLUME BUDGET FOR ENTIRE MODEL AT END OF TIME STEP    1, STRESS PERIOD 275
  ---------------------------------------------------------------------------------------------------

     CUMULATIVE VOLUME      L**3       RATES FOR THIS TIME STEP      L**3/T          PACKAGE NAME    
     ------------------                 ------------------------                     ----------------

           IN:                                      IN:
           ---                                      ---
              STO-SS =      227438.2154                STO-SS =       3.8732E-03     STORAGE                          
                 DRN =           0.0000                   DRN =           0.0000     DRN_SYS1                         
                 RIV =      309523.8380                   RIV =        1275.8362     RIV_SYS1                         
                 RIV =           0.0000                   RIV =           0.0000     RIV_SYS2                         
                 RCH =           0.0000                   RCH =           0.0000     RCH_MSW                          

            TOTAL IN =      536962.0534              TOTAL IN =        1275.8401

          OUT:                                     OUT:
          ----                                     ----
              STO-SS =           0.0000                STO-SS =           0.0000     STORAGE                          
                 DRN =        8063.6369                   DRN =           9.3220     DRN_SYS1                         
                 RIV =      504175.5615                   RIV =        1226.8821     RIV_SYS1                         
                 RIV =       24724.5558                   RIV =          39.6360     RIV_SYS2                         
                 RCH =           0.0000                   RCH =           0.0000     RCH_MSW                          

           TOTAL OUT =      536963.7542             TOTAL OUT =        1275.8402

            IN - OUT =          -1.7008              IN - OUT =      -3.9476E-05

 PERCENT DISCREPANCY =          -0.00     PERCENT DISCREPANCY =          -0.00




         TIME SUMMARY AT END OF TIME STEP    1 IN STRESS PERIOD  275
                    SECONDS     MINUTES      HOURS       DAYS        YEARS
                    -----------------------------------------------------------
   TIME STEP LENGTH  86400.      1440.0      24.000      1.0000     2.73785E-03
 STRESS PERIOD TIME  86400.      1440.0      24.000      1.0000     2.73785E-03
         TOTAL TIME 2.37600E+07 3.96000E+05  6600.0      275.00     0.75291    


end timestep


start timestep kper="276" kstp="1" mode="normal"

 #Stressperiod Save Options

 BEGIN READING OUTPUT CONTROL FOR STRESS PERIOD 276
      ALL TIME STEPS WILL BE SAVED
      ALL TIME STEPS WILL BE SAVED

 END READING OUTPUT CONTROL FOR STRESS PERIOD 276


 PROCESSING STORAGE PERIOD DATA
 END PROCESSING STORAGE PERIOD DATA


 STRESS PERIOD 276 IS TRANSIENT


 REUSING DRNS FROM LAST STRESS PERIOD

 REUSING RIVS FROM LAST STRESS PERIOD

 REUSING RIVS FROM LAST STRESS PERIOD

 REUSING RCHS FROM LAST STRESS PERIOD
 UBDSV06 SAVING              DRN IN MODEL GWF_1            PACKAGE GWF_1           CONNECTED TO MODEL GWF_1            PACKAGE DRN_SYS1         ON UNIT   1018 AT TIME STEP      1, STRESS PERIOD    276
 UBDSV06 SAVING              RIV IN MODEL GWF_1            PACKAGE GWF_1           CONNECTED TO MODEL GWF_1            PACKAGE RIV_SYS1         ON UNIT   1018 AT TIME STEP      1, STRESS PERIOD    276
 UBDSV06 SAVING              RIV IN MODEL GWF_1            PACKAGE GWF_1           CONNECTED TO MODEL GWF_1            PACKAGE RIV_SYS2         ON UNIT   1018 AT TIME STEP      1, STRESS PERIOD    276

 HEAD WILL BE SAVED ON UNIT 1017 AT END OF TIME STEP    1, STRESS PERIOD  276


  VOLUME BUDGET FOR ENTIRE MODEL AT END OF TIME STEP    1, STRESS PERIOD 276
  ---------------------------------------------------------------------------------------------------

     CUMULATIVE VOLUME      L**3       RATES FOR THIS TIME STEP      L**3/T          PACKAGE NAME    
     ------------------                 ------------------------                     ----------------

           IN:                                      IN:
           ---                                      ---
              STO-SS =      227438.2191                STO-SS =       3.6708E-03     STORAGE                          
                 DRN =           0.0000                   DRN =           0.0000     DRN_SYS1                         
                 RIV =      310799.6743                   RIV =        1275.8363     RIV_SYS1                         
                 RIV =           0.0000                   RIV =           0.0000     RIV_SYS2                         
                 RCH =           0.0000                   RCH =           0.0000     RCH_MSW                          

            TOTAL IN =      538237.8934              TOTAL IN =        1275.8400

          OUT:                                     OUT:
          ----                                     ----
              STO-SS =           0.0000                STO-SS =           0.0000     STORAGE                          
                 DRN =        8072.9589                   DRN =           9.3220     DRN_SYS1                         
                 RIV =      505402.4435                   RIV =        1226.8820     RIV_SYS1                         
                 RIV =       24764.1918                   RIV =          39.6360     RIV_SYS2                         
                 RCH =           0.0000                   RCH =           0.0000     RCH_MSW                          

           TOTAL OUT =      538239.5942             TOTAL OUT =        1275.8400

            IN - OUT =          -1.7009              IN - OUT =      -3.7414E-05

 PERCENT DISCREPANCY =          -0.00     PERCENT DISCREPANCY =          -0.00




         TIME SUMMARY AT END OF TIME STEP    1 IN STRESS PERIOD  276
                    SECONDS     MINUTES      HOURS       DAYS        YEARS
                    -----------------------------------------------------------
   TIME STEP LENGTH  86400.      1440.0      24.000      1.0000     2.73785E-03
 STRESS PERIOD TIME  86400.      1440.0      24.000      1.0000     2.73785E-03
         TOTAL TIME 2.38464E+07 3.97440E+05  6624.0      276.00     0.75565    


end timestep


start timestep kper="277" kstp="1" mode="normal"

 #Stressperiod Save Options

 BEGIN READING OUTPUT CONTROL FOR STRESS PERIOD 277
      ALL TIME STEPS WILL BE SAVED
      ALL TIME STEPS WILL BE SAVED

 END READING OUTPUT CONTROL FOR STRESS PERIOD 277


 PROCESSING STORAGE PERIOD DATA
 END PROCESSING STORAGE PERIOD DATA


 STRESS PERIOD 277 IS TRANSIENT


 REUSING DRNS FROM LAST STRESS PERIOD

 REUSING RIVS FROM LAST STRESS PERIOD

 REUSING RIVS FROM LAST STRESS PERIOD

 REUSING RCHS FROM LAST STRESS PERIOD
 UBDSV06 SAVING              DRN IN MODEL GWF_1            PACKAGE GWF_1           CONNECTED TO MODEL GWF_1            PACKAGE DRN_SYS1         ON UNIT   1018 AT TIME STEP      1, STRESS PERIOD    277
 UBDSV06 SAVING              RIV IN MODEL GWF_1            PACKAGE GWF_1           CONNECTED TO MODEL GWF_1            PACKAGE RIV_SYS1         ON UNIT   1018 AT TIME STEP      1, STRESS PERIOD    277
 UBDSV06 SAVING              RIV IN MODEL GWF_1            PACKAGE GWF_1           CONNECTED TO MODEL GWF_1            PACKAGE RIV_SYS2         ON UNIT   1018 AT TIME STEP      1, STRESS PERIOD    277

 HEAD WILL BE SAVED ON UNIT 1017 AT END OF TIME STEP    1, STRESS PERIOD  277


  VOLUME BUDGET FOR ENTIRE MODEL AT END OF TIME STEP    1, STRESS PERIOD 277
  ---------------------------------------------------------------------------------------------------

     CUMULATIVE VOLUME      L**3       RATES FOR THIS TIME STEP      L**3/T          PACKAGE NAME    
     ------------------                 ------------------------                     ----------------

           IN:                                      IN:
           ---                                      ---
              STO-SS =      227438.2226                STO-SS =       3.4790E-03     STORAGE                          
                 DRN =           0.0000                   DRN =           0.0000     DRN_SYS1                         
                 RIV =      312075.5107                   RIV =        1275.8364     RIV_SYS1                         
                 RIV =           0.0000                   RIV =           0.0000     RIV_SYS2                         
                 RCH =           0.0000                   RCH =           0.0000     RCH_MSW                          

            TOTAL IN =      539513.7332              TOTAL IN =        1275.8398

          OUT:                                     OUT:
          ----                                     ----
              STO-SS =           0.0000                STO-SS =           0.0000     STORAGE                          
                 DRN =        8082.2809                   DRN =           9.3220     DRN_SYS1                         
                 RIV =      506629.3254                   RIV =        1226.8819     RIV_SYS1                         
                 RIV =       24803.8278                   RIV =          39.6360     RIV_SYS2                         
                 RCH =           0.0000                   RCH =           0.0000     RCH_MSW                          

           TOTAL OUT =      539515.4341             TOTAL OUT =        1275.8399

            IN - OUT =          -1.7009              IN - OUT =      -3.5459E-05

 PERCENT DISCREPANCY =          -0.00     PERCENT DISCREPANCY =          -0.00




         TIME SUMMARY AT END OF TIME STEP    1 IN STRESS PERIOD  277
                    SECONDS     MINUTES      HOURS       DAYS        YEARS
                    -----------------------------------------------------------
   TIME STEP LENGTH  86400.      1440.0      24.000      1.0000     2.73785E-03
 STRESS PERIOD TIME  86400.      1440.0      24.000      1.0000     2.73785E-03
         TOTAL TIME 2.39328E+07 3.98880E+05  6648.0      277.00     0.75838    


end timestep


start timestep kper="278" kstp="1" mode="normal"

 #Stressperiod Save Options

 BEGIN READING OUTPUT CONTROL FOR STRESS PERIOD 278
      ALL TIME STEPS WILL BE SAVED
      ALL TIME STEPS WILL BE SAVED

 END READING OUTPUT CONTROL FOR STRESS PERIOD 278


 PROCESSING STORAGE PERIOD DATA
 END PROCESSING STORAGE PERIOD DATA


 STRESS PERIOD 278 IS TRANSIENT


 REUSING DRNS FROM LAST STRESS PERIOD

 REUSING RIVS FROM LAST STRESS PERIOD

 REUSING RIVS FROM LAST STRESS PERIOD

 REUSING RCHS FROM LAST STRESS PERIOD
 UBDSV06 SAVING              DRN IN MODEL GWF_1            PACKAGE GWF_1           CONNECTED TO MODEL GWF_1            PACKAGE DRN_SYS1         ON UNIT   1018 AT TIME STEP      1, STRESS PERIOD    278
 UBDSV06 SAVING              RIV IN MODEL GWF_1            PACKAGE GWF_1           CONNECTED TO MODEL GWF_1            PACKAGE RIV_SYS1         ON UNIT   1018 AT TIME STEP      1, STRESS PERIOD    278
 UBDSV06 SAVING              RIV IN MODEL GWF_1            PACKAGE GWF_1           CONNECTED TO MODEL GWF_1            PACKAGE RIV_SYS2         ON UNIT   1018 AT TIME STEP      1, STRESS PERIOD    278

 HEAD WILL BE SAVED ON UNIT 1017 AT END OF TIME STEP    1, STRESS PERIOD  278


  VOLUME BUDGET FOR ENTIRE MODEL AT END OF TIME STEP    1, STRESS PERIOD 278
  ---------------------------------------------------------------------------------------------------

     CUMULATIVE VOLUME      L**3       RATES FOR THIS TIME STEP      L**3/T          PACKAGE NAME    
     ------------------                 ------------------------                     ----------------

           IN:                                      IN:
           ---                                      ---
              STO-SS =      227438.2259                STO-SS =       3.2972E-03     STORAGE                          
                 DRN =           0.0000                   DRN =           0.0000     DRN_SYS1                         
                 RIV =      313351.3471                   RIV =        1275.8364     RIV_SYS1                         
                 RIV =           0.0000                   RIV =           0.0000     RIV_SYS2                         
                 RCH =           0.0000                   RCH =           0.0000     RCH_MSW                          

            TOTAL IN =      540789.5729              TOTAL IN =        1275.8397

          OUT:                                     OUT:
          ----                                     ----
              STO-SS =           0.0000                STO-SS =           0.0000     STORAGE                          
                 DRN =        8091.6029                   DRN =           9.3220     DRN_SYS1                         
                 RIV =      507856.2072                   RIV =        1226.8818     RIV_SYS1                         
                 RIV =       24843.4638                   RIV =          39.6360     RIV_SYS2                         
                 RCH =           0.0000                   RCH =           0.0000     RCH_MSW                          

           TOTAL OUT =      540791.2739             TOTAL OUT =        1275.8398

            IN - OUT =          -1.7009              IN - OUT =      -3.3607E-05

 PERCENT DISCREPANCY =          -0.00     PERCENT DISCREPANCY =          -0.00




         TIME SUMMARY AT END OF TIME STEP    1 IN STRESS PERIOD  278
                    SECONDS     MINUTES      HOURS       DAYS        YEARS
                    -----------------------------------------------------------
   TIME STEP LENGTH  86400.      1440.0      24.000      1.0000     2.73785E-03
 STRESS PERIOD TIME  86400.      1440.0      24.000      1.0000     2.73785E-03
         TOTAL TIME 2.40192E+07 4.00320E+05  6672.0      278.00     0.76112    


end timestep


start timestep kper="279" kstp="1" mode="normal"

 #Stressperiod Save Options

 BEGIN READING OUTPUT CONTROL FOR STRESS PERIOD 279
      ALL TIME STEPS WILL BE SAVED
      ALL TIME STEPS WILL BE SAVED

 END READING OUTPUT CONTROL FOR STRESS PERIOD 279


 PROCESSING STORAGE PERIOD DATA
 END PROCESSING STORAGE PERIOD DATA


 STRESS PERIOD 279 IS TRANSIENT


 REUSING DRNS FROM LAST STRESS PERIOD

 REUSING RIVS FROM LAST STRESS PERIOD

 REUSING RIVS FROM LAST STRESS PERIOD

 REUSING RCHS FROM LAST STRESS PERIOD
 UBDSV06 SAVING              DRN IN MODEL GWF_1            PACKAGE GWF_1           CONNECTED TO MODEL GWF_1            PACKAGE DRN_SYS1         ON UNIT   1018 AT TIME STEP      1, STRESS PERIOD    279
 UBDSV06 SAVING              RIV IN MODEL GWF_1            PACKAGE GWF_1           CONNECTED TO MODEL GWF_1            PACKAGE RIV_SYS1         ON UNIT   1018 AT TIME STEP      1, STRESS PERIOD    279
 UBDSV06 SAVING              RIV IN MODEL GWF_1            PACKAGE GWF_1           CONNECTED TO MODEL GWF_1            PACKAGE RIV_SYS2         ON UNIT   1018 AT TIME STEP      1, STRESS PERIOD    279

 HEAD WILL BE SAVED ON UNIT 1017 AT END OF TIME STEP    1, STRESS PERIOD  279


  VOLUME BUDGET FOR ENTIRE MODEL AT END OF TIME STEP    1, STRESS PERIOD 279
  ---------------------------------------------------------------------------------------------------

     CUMULATIVE VOLUME      L**3       RATES FOR THIS TIME STEP      L**3/T          PACKAGE NAME    
     ------------------                 ------------------------                     ----------------

           IN:                                      IN:
           ---                                      ---
              STO-SS =      227438.2290                STO-SS =       3.1249E-03     STORAGE                          
                 DRN =           0.0000                   DRN =           0.0000     DRN_SYS1                         
                 RIV =      314627.1836                   RIV =        1275.8365     RIV_SYS1                         
                 RIV =           0.0000                   RIV =           0.0000     RIV_SYS2                         
                 RCH =           0.0000                   RCH =           0.0000     RCH_MSW                          

            TOTAL IN =      542065.4126              TOTAL IN =        1275.8396

          OUT:                                     OUT:
          ----                                     ----
              STO-SS =           0.0000                STO-SS =           0.0000     STORAGE                          
                 DRN =        8100.9249                   DRN =           9.3220     DRN_SYS1                         
                 RIV =      509083.0888                   RIV =        1226.8817     RIV_SYS1                         
                 RIV =       24883.0998                   RIV =          39.6360     RIV_SYS2                         
                 RCH =           0.0000                   RCH =           0.0000     RCH_MSW                          

           TOTAL OUT =      542067.1135             TOTAL OUT =        1275.8396

            IN - OUT =          -1.7010              IN - OUT =      -3.1852E-05

 PERCENT DISCREPANCY =          -0.00     PERCENT DISCREPANCY =          -0.00




         TIME SUMMARY AT END OF TIME STEP    1 IN STRESS PERIOD  279
                    SECONDS     MINUTES      HOURS       DAYS        YEARS
                    -----------------------------------------------------------
   TIME STEP LENGTH  86400.      1440.0      24.000      1.0000     2.73785E-03
 STRESS PERIOD TIME  86400.      1440.0      24.000      1.0000     2.73785E-03
         TOTAL TIME 2.41056E+07 4.01760E+05  6696.0      279.00     0.76386    


end timestep


start timestep kper="280" kstp="1" mode="normal"

 #Stressperiod Save Options

 BEGIN READING OUTPUT CONTROL FOR STRESS PERIOD 280
      ALL TIME STEPS WILL BE SAVED
      ALL TIME STEPS WILL BE SAVED

 END READING OUTPUT CONTROL FOR STRESS PERIOD 280


 PROCESSING STORAGE PERIOD DATA
 END PROCESSING STORAGE PERIOD DATA


 STRESS PERIOD 280 IS TRANSIENT


 REUSING DRNS FROM LAST STRESS PERIOD

 REUSING RIVS FROM LAST STRESS PERIOD

 REUSING RIVS FROM LAST STRESS PERIOD

 REUSING RCHS FROM LAST STRESS PERIOD
 UBDSV06 SAVING              DRN IN MODEL GWF_1            PACKAGE GWF_1           CONNECTED TO MODEL GWF_1            PACKAGE DRN_SYS1         ON UNIT   1018 AT TIME STEP      1, STRESS PERIOD    280
 UBDSV06 SAVING              RIV IN MODEL GWF_1            PACKAGE GWF_1           CONNECTED TO MODEL GWF_1            PACKAGE RIV_SYS1         ON UNIT   1018 AT TIME STEP      1, STRESS PERIOD    280
 UBDSV06 SAVING              RIV IN MODEL GWF_1            PACKAGE GWF_1           CONNECTED TO MODEL GWF_1            PACKAGE RIV_SYS2         ON UNIT   1018 AT TIME STEP      1, STRESS PERIOD    280

 HEAD WILL BE SAVED ON UNIT 1017 AT END OF TIME STEP    1, STRESS PERIOD  280


  VOLUME BUDGET FOR ENTIRE MODEL AT END OF TIME STEP    1, STRESS PERIOD 280
  ---------------------------------------------------------------------------------------------------

     CUMULATIVE VOLUME      L**3       RATES FOR THIS TIME STEP      L**3/T          PACKAGE NAME    
     ------------------                 ------------------------                     ----------------

           IN:                                      IN:
           ---                                      ---
              STO-SS =      227438.2320                STO-SS =       2.9616E-03     STORAGE                          
                 DRN =           0.0000                   DRN =           0.0000     DRN_SYS1                         
                 RIV =      315903.0201                   RIV =        1275.8365     RIV_SYS1                         
                 RIV =           0.0000                   RIV =           0.0000     RIV_SYS2                         
                 RCH =           0.0000                   RCH =           0.0000     RCH_MSW                          

            TOTAL IN =      543341.2520              TOTAL IN =        1275.8395

          OUT:                                     OUT:
          ----                                     ----
              STO-SS =           0.0000                STO-SS =           0.0000     STORAGE                          
                 DRN =        8110.2469                   DRN =           9.3220     DRN_SYS1                         
                 RIV =      510309.9704                   RIV =        1226.8816     RIV_SYS1                         
                 RIV =       24922.7357                   RIV =          39.6360     RIV_SYS2                         
                 RCH =           0.0000                   RCH =           0.0000     RCH_MSW                          

           TOTAL OUT =      543342.9530             TOTAL OUT =        1275.8395

            IN - OUT =          -1.7010              IN - OUT =      -3.0189E-05

 PERCENT DISCREPANCY =          -0.00     PERCENT DISCREPANCY =          -0.00




         TIME SUMMARY AT END OF TIME STEP    1 IN STRESS PERIOD  280
                    SECONDS     MINUTES      HOURS       DAYS        YEARS
                    -----------------------------------------------------------
   TIME STEP LENGTH  86400.      1440.0      24.000      1.0000     2.73785E-03
 STRESS PERIOD TIME  86400.      1440.0      24.000      1.0000     2.73785E-03
         TOTAL TIME 2.41920E+07 4.03200E+05  6720.0      280.00     0.76660    


end timestep


start timestep kper="281" kstp="1" mode="normal"

 #Stressperiod Save Options

 BEGIN READING OUTPUT CONTROL FOR STRESS PERIOD 281
      ALL TIME STEPS WILL BE SAVED
      ALL TIME STEPS WILL BE SAVED

 END READING OUTPUT CONTROL FOR STRESS PERIOD 281


 PROCESSING STORAGE PERIOD DATA
 END PROCESSING STORAGE PERIOD DATA


 STRESS PERIOD 281 IS TRANSIENT


 REUSING DRNS FROM LAST STRESS PERIOD

 REUSING RIVS FROM LAST STRESS PERIOD

 REUSING RIVS FROM LAST STRESS PERIOD

 REUSING RCHS FROM LAST STRESS PERIOD
 UBDSV06 SAVING              DRN IN MODEL GWF_1            PACKAGE GWF_1           CONNECTED TO MODEL GWF_1            PACKAGE DRN_SYS1         ON UNIT   1018 AT TIME STEP      1, STRESS PERIOD    281
 UBDSV06 SAVING              RIV IN MODEL GWF_1            PACKAGE GWF_1           CONNECTED TO MODEL GWF_1            PACKAGE RIV_SYS1         ON UNIT   1018 AT TIME STEP      1, STRESS PERIOD    281
 UBDSV06 SAVING              RIV IN MODEL GWF_1            PACKAGE GWF_1           CONNECTED TO MODEL GWF_1            PACKAGE RIV_SYS2         ON UNIT   1018 AT TIME STEP      1, STRESS PERIOD    281

 HEAD WILL BE SAVED ON UNIT 1017 AT END OF TIME STEP    1, STRESS PERIOD  281


  VOLUME BUDGET FOR ENTIRE MODEL AT END OF TIME STEP    1, STRESS PERIOD 281
  ---------------------------------------------------------------------------------------------------

     CUMULATIVE VOLUME      L**3       RATES FOR THIS TIME STEP      L**3/T          PACKAGE NAME    
     ------------------                 ------------------------                     ----------------

           IN:                                      IN:
           ---                                      ---
              STO-SS =      227438.2348                STO-SS =       2.8068E-03     STORAGE                          
                 DRN =           0.0000                   DRN =           0.0000     DRN_SYS1                         
                 RIV =      317178.8567                   RIV =        1275.8366     RIV_SYS1                         
                 RIV =           0.0000                   RIV =           0.0000     RIV_SYS2                         
                 RCH =           0.0000                   RCH =           0.0000     RCH_MSW                          

            TOTAL IN =      544617.0914              TOTAL IN =        1275.8394

          OUT:                                     OUT:
          ----                                     ----
              STO-SS =           0.0000                STO-SS =           0.0000     STORAGE                          
                 DRN =        8119.5689                   DRN =           9.3220     DRN_SYS1                         
                 RIV =      511536.8519                   RIV =        1226.8815     RIV_SYS1                         
                 RIV =       24962.3717                   RIV =          39.6360     RIV_SYS2                         
                 RCH =           0.0000                   RCH =           0.0000     RCH_MSW                          

           TOTAL OUT =      544618.7925             TOTAL OUT =        1275.8394

            IN - OUT =          -1.7010              IN - OUT =      -2.8612E-05

 PERCENT DISCREPANCY =          -0.00     PERCENT DISCREPANCY =          -0.00




         TIME SUMMARY AT END OF TIME STEP    1 IN STRESS PERIOD  281
                    SECONDS     MINUTES      HOURS       DAYS        YEARS
                    -----------------------------------------------------------
   TIME STEP LENGTH  86400.      1440.0      24.000      1.0000     2.73785E-03
 STRESS PERIOD TIME  86400.      1440.0      24.000      1.0000     2.73785E-03
         TOTAL TIME 2.42784E+07 4.04640E+05  6744.0      281.00     0.76934    


end timestep


start timestep kper="282" kstp="1" mode="normal"

 #Stressperiod Save Options

 BEGIN READING OUTPUT CONTROL FOR STRESS PERIOD 282
      ALL TIME STEPS WILL BE SAVED
      ALL TIME STEPS WILL BE SAVED

 END READING OUTPUT CONTROL FOR STRESS PERIOD 282


 PROCESSING STORAGE PERIOD DATA
 END PROCESSING STORAGE PERIOD DATA


 STRESS PERIOD 282 IS TRANSIENT


 REUSING DRNS FROM LAST STRESS PERIOD

 REUSING RIVS FROM LAST STRESS PERIOD

 REUSING RIVS FROM LAST STRESS PERIOD

 REUSING RCHS FROM LAST STRESS PERIOD
 UBDSV06 SAVING              DRN IN MODEL GWF_1            PACKAGE GWF_1           CONNECTED TO MODEL GWF_1            PACKAGE DRN_SYS1         ON UNIT   1018 AT TIME STEP      1, STRESS PERIOD    282
 UBDSV06 SAVING              RIV IN MODEL GWF_1            PACKAGE GWF_1           CONNECTED TO MODEL GWF_1            PACKAGE RIV_SYS1         ON UNIT   1018 AT TIME STEP      1, STRESS PERIOD    282
 UBDSV06 SAVING              RIV IN MODEL GWF_1            PACKAGE GWF_1           CONNECTED TO MODEL GWF_1            PACKAGE RIV_SYS2         ON UNIT   1018 AT TIME STEP      1, STRESS PERIOD    282

 HEAD WILL BE SAVED ON UNIT 1017 AT END OF TIME STEP    1, STRESS PERIOD  282


  VOLUME BUDGET FOR ENTIRE MODEL AT END OF TIME STEP    1, STRESS PERIOD 282
  ---------------------------------------------------------------------------------------------------

     CUMULATIVE VOLUME      L**3       RATES FOR THIS TIME STEP      L**3/T          PACKAGE NAME    
     ------------------                 ------------------------                     ----------------

           IN:                                      IN:
           ---                                      ---
              STO-SS =      227438.2374                STO-SS =       2.6601E-03     STORAGE                          
                 DRN =           0.0000                   DRN =           0.0000     DRN_SYS1                         
                 RIV =      318454.6933                   RIV =        1275.8366     RIV_SYS1                         
                 RIV =           0.0000                   RIV =           0.0000     RIV_SYS2                         
                 RCH =           0.0000                   RCH =           0.0000     RCH_MSW                          

            TOTAL IN =      545892.9307              TOTAL IN =        1275.8393

          OUT:                                     OUT:
          ----                                     ----
              STO-SS =           0.0000                STO-SS =           0.0000     STORAGE                          
                 DRN =        8128.8908                   DRN =           9.3220     DRN_SYS1                         
                 RIV =      512763.7333                   RIV =        1226.8814     RIV_SYS1                         
                 RIV =       25002.0076                   RIV =          39.6359     RIV_SYS2                         
                 RCH =           0.0000                   RCH =           0.0000     RCH_MSW                          

           TOTAL OUT =      545894.6318             TOTAL OUT =        1275.8393

            IN - OUT =          -1.7010              IN - OUT =      -2.7118E-05

 PERCENT DISCREPANCY =          -0.00     PERCENT DISCREPANCY =          -0.00




         TIME SUMMARY AT END OF TIME STEP    1 IN STRESS PERIOD  282
                    SECONDS     MINUTES      HOURS       DAYS        YEARS
                    -----------------------------------------------------------
   TIME STEP LENGTH  86400.      1440.0      24.000      1.0000     2.73785E-03
 STRESS PERIOD TIME  86400.      1440.0      24.000      1.0000     2.73785E-03
         TOTAL TIME 2.43648E+07 4.06080E+05  6768.0      282.00     0.77207    


end timestep


start timestep kper="283" kstp="1" mode="normal"

 #Stressperiod Save Options

 BEGIN READING OUTPUT CONTROL FOR STRESS PERIOD 283
      ALL TIME STEPS WILL BE SAVED
      ALL TIME STEPS WILL BE SAVED

 END READING OUTPUT CONTROL FOR STRESS PERIOD 283


 PROCESSING STORAGE PERIOD DATA
 END PROCESSING STORAGE PERIOD DATA


 STRESS PERIOD 283 IS TRANSIENT


 REUSING DRNS FROM LAST STRESS PERIOD

 REUSING RIVS FROM LAST STRESS PERIOD

 REUSING RIVS FROM LAST STRESS PERIOD

 REUSING RCHS FROM LAST STRESS PERIOD
 UBDSV06 SAVING              DRN IN MODEL GWF_1            PACKAGE GWF_1           CONNECTED TO MODEL GWF_1            PACKAGE DRN_SYS1         ON UNIT   1018 AT TIME STEP      1, STRESS PERIOD    283
 UBDSV06 SAVING              RIV IN MODEL GWF_1            PACKAGE GWF_1           CONNECTED TO MODEL GWF_1            PACKAGE RIV_SYS1         ON UNIT   1018 AT TIME STEP      1, STRESS PERIOD    283
 UBDSV06 SAVING              RIV IN MODEL GWF_1            PACKAGE GWF_1           CONNECTED TO MODEL GWF_1            PACKAGE RIV_SYS2         ON UNIT   1018 AT TIME STEP      1, STRESS PERIOD    283

 HEAD WILL BE SAVED ON UNIT 1017 AT END OF TIME STEP    1, STRESS PERIOD  283


  VOLUME BUDGET FOR ENTIRE MODEL AT END OF TIME STEP    1, STRESS PERIOD 283
  ---------------------------------------------------------------------------------------------------

     CUMULATIVE VOLUME      L**3       RATES FOR THIS TIME STEP      L**3/T          PACKAGE NAME    
     ------------------                 ------------------------                     ----------------

           IN:                                      IN:
           ---                                      ---
              STO-SS =      227438.2399                STO-SS =       2.5211E-03     STORAGE                          
                 DRN =           0.0000                   DRN =           0.0000     DRN_SYS1                         
                 RIV =      319730.5300                   RIV =        1275.8367     RIV_SYS1                         
                 RIV =           0.0000                   RIV =           0.0000     RIV_SYS2                         
                 RCH =           0.0000                   RCH =           0.0000     RCH_MSW                          

            TOTAL IN =      547168.7699              TOTAL IN =        1275.8392

          OUT:                                     OUT:
          ----                                     ----
              STO-SS =           0.0000                STO-SS =           0.0000     STORAGE                          
                 DRN =        8138.2128                   DRN =           9.3220     DRN_SYS1                         
                 RIV =      513990.6146                   RIV =        1226.8813     RIV_SYS1                         
                 RIV =       25041.6436                   RIV =          39.6359     RIV_SYS2                         
                 RCH =           0.0000                   RCH =           0.0000     RCH_MSW                          

           TOTAL OUT =      547170.4710             TOTAL OUT =        1275.8392

            IN - OUT =          -1.7011              IN - OUT =      -2.5703E-05

 PERCENT DISCREPANCY =          -0.00     PERCENT DISCREPANCY =          -0.00




         TIME SUMMARY AT END OF TIME STEP    1 IN STRESS PERIOD  283
                    SECONDS     MINUTES      HOURS       DAYS        YEARS
                    -----------------------------------------------------------
   TIME STEP LENGTH  86400.      1440.0      24.000      1.0000     2.73785E-03
 STRESS PERIOD TIME  86400.      1440.0      24.000      1.0000     2.73785E-03
         TOTAL TIME 2.44512E+07 4.07520E+05  6792.0      283.00     0.77481    


end timestep


start timestep kper="284" kstp="1" mode="normal"

 #Stressperiod Save Options

 BEGIN READING OUTPUT CONTROL FOR STRESS PERIOD 284
      ALL TIME STEPS WILL BE SAVED
      ALL TIME STEPS WILL BE SAVED

 END READING OUTPUT CONTROL FOR STRESS PERIOD 284


 PROCESSING STORAGE PERIOD DATA
 END PROCESSING STORAGE PERIOD DATA


 STRESS PERIOD 284 IS TRANSIENT


 REUSING DRNS FROM LAST STRESS PERIOD

 REUSING RIVS FROM LAST STRESS PERIOD

 REUSING RIVS FROM LAST STRESS PERIOD

 REUSING RCHS FROM LAST STRESS PERIOD
 UBDSV06 SAVING              DRN IN MODEL GWF_1            PACKAGE GWF_1           CONNECTED TO MODEL GWF_1            PACKAGE DRN_SYS1         ON UNIT   1018 AT TIME STEP      1, STRESS PERIOD    284
 UBDSV06 SAVING              RIV IN MODEL GWF_1            PACKAGE GWF_1           CONNECTED TO MODEL GWF_1            PACKAGE RIV_SYS1         ON UNIT   1018 AT TIME STEP      1, STRESS PERIOD    284
 UBDSV06 SAVING              RIV IN MODEL GWF_1            PACKAGE GWF_1           CONNECTED TO MODEL GWF_1            PACKAGE RIV_SYS2         ON UNIT   1018 AT TIME STEP      1, STRESS PERIOD    284

 HEAD WILL BE SAVED ON UNIT 1017 AT END OF TIME STEP    1, STRESS PERIOD  284


  VOLUME BUDGET FOR ENTIRE MODEL AT END OF TIME STEP    1, STRESS PERIOD 284
  ---------------------------------------------------------------------------------------------------

     CUMULATIVE VOLUME      L**3       RATES FOR THIS TIME STEP      L**3/T          PACKAGE NAME    
     ------------------                 ------------------------                     ----------------

           IN:                                      IN:
           ---                                      ---
              STO-SS =      227438.2423                STO-SS =       2.3894E-03     STORAGE                          
                 DRN =           0.0000                   DRN =           0.0000     DRN_SYS1                         
                 RIV =      321006.3667                   RIV =        1275.8367     RIV_SYS1                         
                 RIV =           0.0000                   RIV =           0.0000     RIV_SYS2                         
                 RCH =           0.0000                   RCH =           0.0000     RCH_MSW                          

            TOTAL IN =      548444.6090              TOTAL IN =        1275.8391

          OUT:                                     OUT:
          ----                                     ----
              STO-SS =           0.0000                STO-SS =           0.0000     STORAGE                          
                 DRN =        8147.5348                   DRN =           9.3220     DRN_SYS1                         
                 RIV =      515217.4959                   RIV =        1226.8812     RIV_SYS1                         
                 RIV =       25081.2795                   RIV =          39.6359     RIV_SYS2                         
                 RCH =           0.0000                   RCH =           0.0000     RCH_MSW                          

           TOTAL OUT =      548446.3101             TOTAL OUT =        1275.8391

            IN - OUT =          -1.7011              IN - OUT =      -2.4361E-05

 PERCENT DISCREPANCY =          -0.00     PERCENT DISCREPANCY =          -0.00




         TIME SUMMARY AT END OF TIME STEP    1 IN STRESS PERIOD  284
                    SECONDS     MINUTES      HOURS       DAYS        YEARS
                    -----------------------------------------------------------
   TIME STEP LENGTH  86400.      1440.0      24.000      1.0000     2.73785E-03
 STRESS PERIOD TIME  86400.      1440.0      24.000      1.0000     2.73785E-03
         TOTAL TIME 2.45376E+07 4.08960E+05  6816.0      284.00     0.77755    


end timestep


start timestep kper="285" kstp="1" mode="normal"

 #Stressperiod Save Options

 BEGIN READING OUTPUT CONTROL FOR STRESS PERIOD 285
      ALL TIME STEPS WILL BE SAVED
      ALL TIME STEPS WILL BE SAVED

 END READING OUTPUT CONTROL FOR STRESS PERIOD 285


 PROCESSING STORAGE PERIOD DATA
 END PROCESSING STORAGE PERIOD DATA


 STRESS PERIOD 285 IS TRANSIENT


 REUSING DRNS FROM LAST STRESS PERIOD

 REUSING RIVS FROM LAST STRESS PERIOD

 REUSING RIVS FROM LAST STRESS PERIOD

 REUSING RCHS FROM LAST STRESS PERIOD
 UBDSV06 SAVING              DRN IN MODEL GWF_1            PACKAGE GWF_1           CONNECTED TO MODEL GWF_1            PACKAGE DRN_SYS1         ON UNIT   1018 AT TIME STEP      1, STRESS PERIOD    285
 UBDSV06 SAVING              RIV IN MODEL GWF_1            PACKAGE GWF_1           CONNECTED TO MODEL GWF_1            PACKAGE RIV_SYS1         ON UNIT   1018 AT TIME STEP      1, STRESS PERIOD    285
 UBDSV06 SAVING              RIV IN MODEL GWF_1            PACKAGE GWF_1           CONNECTED TO MODEL GWF_1            PACKAGE RIV_SYS2         ON UNIT   1018 AT TIME STEP      1, STRESS PERIOD    285

 HEAD WILL BE SAVED ON UNIT 1017 AT END OF TIME STEP    1, STRESS PERIOD  285


  VOLUME BUDGET FOR ENTIRE MODEL AT END OF TIME STEP    1, STRESS PERIOD 285
  ---------------------------------------------------------------------------------------------------

     CUMULATIVE VOLUME      L**3       RATES FOR THIS TIME STEP      L**3/T          PACKAGE NAME    
     ------------------                 ------------------------                     ----------------

           IN:                                      IN:
           ---                                      ---
              STO-SS =      227438.2446                STO-SS =       2.2645E-03     STORAGE                          
                 DRN =           0.0000                   DRN =           0.0000     DRN_SYS1                         
                 RIV =      322282.2035                   RIV =        1275.8368     RIV_SYS1                         
                 RIV =           0.0000                   RIV =           0.0000     RIV_SYS2                         
                 RCH =           0.0000                   RCH =           0.0000     RCH_MSW                          

            TOTAL IN =      549720.4481              TOTAL IN =        1275.8390

          OUT:                                     OUT:
          ----                                     ----
              STO-SS =           0.0000                STO-SS =           0.0000     STORAGE                          
                 DRN =        8156.8567                   DRN =           9.3220     DRN_SYS1                         
                 RIV =      516444.3770                   RIV =        1226.8812     RIV_SYS1                         
                 RIV =       25120.9154                   RIV =          39.6359     RIV_SYS2                         
                 RCH =           0.0000                   RCH =           0.0000     RCH_MSW                          

           TOTAL OUT =      549722.1492             TOTAL OUT =        1275.8390

            IN - OUT =          -1.7011              IN - OUT =      -2.3090E-05

 PERCENT DISCREPANCY =          -0.00     PERCENT DISCREPANCY =          -0.00




         TIME SUMMARY AT END OF TIME STEP    1 IN STRESS PERIOD  285
                    SECONDS     MINUTES      HOURS       DAYS        YEARS
                    -----------------------------------------------------------
   TIME STEP LENGTH  86400.      1440.0      24.000      1.0000     2.73785E-03
 STRESS PERIOD TIME  86400.      1440.0      24.000      1.0000     2.73785E-03
         TOTAL TIME 2.46240E+07 4.10400E+05  6840.0      285.00     0.78029    


end timestep


start timestep kper="286" kstp="1" mode="normal"

 #Stressperiod Save Options

 BEGIN READING OUTPUT CONTROL FOR STRESS PERIOD 286
      ALL TIME STEPS WILL BE SAVED
      ALL TIME STEPS WILL BE SAVED

 END READING OUTPUT CONTROL FOR STRESS PERIOD 286


 PROCESSING STORAGE PERIOD DATA
 END PROCESSING STORAGE PERIOD DATA


 STRESS PERIOD 286 IS TRANSIENT


 REUSING DRNS FROM LAST STRESS PERIOD

 REUSING RIVS FROM LAST STRESS PERIOD

 REUSING RIVS FROM LAST STRESS PERIOD

 REUSING RCHS FROM LAST STRESS PERIOD
 UBDSV06 SAVING              DRN IN MODEL GWF_1            PACKAGE GWF_1           CONNECTED TO MODEL GWF_1            PACKAGE DRN_SYS1         ON UNIT   1018 AT TIME STEP      1, STRESS PERIOD    286
 UBDSV06 SAVING              RIV IN MODEL GWF_1            PACKAGE GWF_1           CONNECTED TO MODEL GWF_1            PACKAGE RIV_SYS1         ON UNIT   1018 AT TIME STEP      1, STRESS PERIOD    286
 UBDSV06 SAVING              RIV IN MODEL GWF_1            PACKAGE GWF_1           CONNECTED TO MODEL GWF_1            PACKAGE RIV_SYS2         ON UNIT   1018 AT TIME STEP      1, STRESS PERIOD    286

 HEAD WILL BE SAVED ON UNIT 1017 AT END OF TIME STEP    1, STRESS PERIOD  286


  VOLUME BUDGET FOR ENTIRE MODEL AT END OF TIME STEP    1, STRESS PERIOD 286
  ---------------------------------------------------------------------------------------------------

     CUMULATIVE VOLUME      L**3       RATES FOR THIS TIME STEP      L**3/T          PACKAGE NAME    
     ------------------                 ------------------------                     ----------------

           IN:                                      IN:
           ---                                      ---
              STO-SS =      227438.2467                STO-SS =       2.1462E-03     STORAGE                          
                 DRN =           0.0000                   DRN =           0.0000     DRN_SYS1                         
                 RIV =      323558.0403                   RIV =        1275.8368     RIV_SYS1                         
                 RIV =           0.0000                   RIV =           0.0000     RIV_SYS2                         
                 RCH =           0.0000                   RCH =           0.0000     RCH_MSW                          

            TOTAL IN =      550996.2870              TOTAL IN =        1275.8389

          OUT:                                     OUT:
          ----                                     ----
              STO-SS =           0.0000                STO-SS =           0.0000     STORAGE                          
                 DRN =        8166.1787                   DRN =           9.3220     DRN_SYS1                         
                 RIV =      517671.2581                   RIV =        1226.8811     RIV_SYS1                         
                 RIV =       25160.5513                   RIV =          39.6359     RIV_SYS2                         
                 RCH =           0.0000                   RCH =           0.0000     RCH_MSW                          

           TOTAL OUT =      550997.9881             TOTAL OUT =        1275.8390

            IN - OUT =          -1.7011              IN - OUT =      -2.1885E-05

 PERCENT DISCREPANCY =          -0.00     PERCENT DISCREPANCY =          -0.00




         TIME SUMMARY AT END OF TIME STEP    1 IN STRESS PERIOD  286
                    SECONDS     MINUTES      HOURS       DAYS        YEARS
                    -----------------------------------------------------------
   TIME STEP LENGTH  86400.      1440.0      24.000      1.0000     2.73785E-03
 STRESS PERIOD TIME  86400.      1440.0      24.000      1.0000     2.73785E-03
         TOTAL TIME 2.47104E+07 4.11840E+05  6864.0      286.00     0.78303    


end timestep


start timestep kper="287" kstp="1" mode="normal"

 #Stressperiod Save Options

 BEGIN READING OUTPUT CONTROL FOR STRESS PERIOD 287
      ALL TIME STEPS WILL BE SAVED
      ALL TIME STEPS WILL BE SAVED

 END READING OUTPUT CONTROL FOR STRESS PERIOD 287


 PROCESSING STORAGE PERIOD DATA
 END PROCESSING STORAGE PERIOD DATA


 STRESS PERIOD 287 IS TRANSIENT


 REUSING DRNS FROM LAST STRESS PERIOD

 REUSING RIVS FROM LAST STRESS PERIOD

 REUSING RIVS FROM LAST STRESS PERIOD

 REUSING RCHS FROM LAST STRESS PERIOD
 UBDSV06 SAVING              DRN IN MODEL GWF_1            PACKAGE GWF_1           CONNECTED TO MODEL GWF_1            PACKAGE DRN_SYS1         ON UNIT   1018 AT TIME STEP      1, STRESS PERIOD    287
 UBDSV06 SAVING              RIV IN MODEL GWF_1            PACKAGE GWF_1           CONNECTED TO MODEL GWF_1            PACKAGE RIV_SYS1         ON UNIT   1018 AT TIME STEP      1, STRESS PERIOD    287
 UBDSV06 SAVING              RIV IN MODEL GWF_1            PACKAGE GWF_1           CONNECTED TO MODEL GWF_1            PACKAGE RIV_SYS2         ON UNIT   1018 AT TIME STEP      1, STRESS PERIOD    287

 HEAD WILL BE SAVED ON UNIT 1017 AT END OF TIME STEP    1, STRESS PERIOD  287


  VOLUME BUDGET FOR ENTIRE MODEL AT END OF TIME STEP    1, STRESS PERIOD 287
  ---------------------------------------------------------------------------------------------------

     CUMULATIVE VOLUME      L**3       RATES FOR THIS TIME STEP      L**3/T          PACKAGE NAME    
     ------------------                 ------------------------                     ----------------

           IN:                                      IN:
           ---                                      ---
              STO-SS =      227438.2488                STO-SS =       2.0340E-03     STORAGE                          
                 DRN =           0.0000                   DRN =           0.0000     DRN_SYS1                         
                 RIV =      324833.8771                   RIV =        1275.8368     RIV_SYS1                         
                 RIV =           0.0000                   RIV =           0.0000     RIV_SYS2                         
                 RCH =           0.0000                   RCH =           0.0000     RCH_MSW                          

            TOTAL IN =      552272.1259              TOTAL IN =        1275.8389

          OUT:                                     OUT:
          ----                                     ----
              STO-SS =           0.0000                STO-SS =           0.0000     STORAGE                          
                 DRN =        8175.5007                   DRN =           9.3220     DRN_SYS1                         
                 RIV =      518898.1392                   RIV =        1226.8810     RIV_SYS1                         
                 RIV =       25200.1872                   RIV =          39.6359     RIV_SYS2                         
                 RCH =           0.0000                   RCH =           0.0000     RCH_MSW                          

           TOTAL OUT =      552273.8270             TOTAL OUT =        1275.8389

            IN - OUT =          -1.7012              IN - OUT =      -2.0743E-05

 PERCENT DISCREPANCY =          -0.00     PERCENT DISCREPANCY =          -0.00




         TIME SUMMARY AT END OF TIME STEP    1 IN STRESS PERIOD  287
                    SECONDS     MINUTES      HOURS       DAYS        YEARS
                    -----------------------------------------------------------
   TIME STEP LENGTH  86400.      1440.0      24.000      1.0000     2.73785E-03
 STRESS PERIOD TIME  86400.      1440.0      24.000      1.0000     2.73785E-03
         TOTAL TIME 2.47968E+07 4.13280E+05  6888.0      287.00     0.78576    


end timestep


start timestep kper="288" kstp="1" mode="normal"

 #Stressperiod Save Options

 BEGIN READING OUTPUT CONTROL FOR STRESS PERIOD 288
      ALL TIME STEPS WILL BE SAVED
      ALL TIME STEPS WILL BE SAVED

 END READING OUTPUT CONTROL FOR STRESS PERIOD 288


 PROCESSING STORAGE PERIOD DATA
 END PROCESSING STORAGE PERIOD DATA


 STRESS PERIOD 288 IS TRANSIENT


 REUSING DRNS FROM LAST STRESS PERIOD

 REUSING RIVS FROM LAST STRESS PERIOD

 REUSING RIVS FROM LAST STRESS PERIOD

 REUSING RCHS FROM LAST STRESS PERIOD
 UBDSV06 SAVING              DRN IN MODEL GWF_1            PACKAGE GWF_1           CONNECTED TO MODEL GWF_1            PACKAGE DRN_SYS1         ON UNIT   1018 AT TIME STEP      1, STRESS PERIOD    288
 UBDSV06 SAVING              RIV IN MODEL GWF_1            PACKAGE GWF_1           CONNECTED TO MODEL GWF_1            PACKAGE RIV_SYS1         ON UNIT   1018 AT TIME STEP      1, STRESS PERIOD    288
 UBDSV06 SAVING              RIV IN MODEL GWF_1            PACKAGE GWF_1           CONNECTED TO MODEL GWF_1            PACKAGE RIV_SYS2         ON UNIT   1018 AT TIME STEP      1, STRESS PERIOD    288

 HEAD WILL BE SAVED ON UNIT 1017 AT END OF TIME STEP    1, STRESS PERIOD  288


  VOLUME BUDGET FOR ENTIRE MODEL AT END OF TIME STEP    1, STRESS PERIOD 288
  ---------------------------------------------------------------------------------------------------

     CUMULATIVE VOLUME      L**3       RATES FOR THIS TIME STEP      L**3/T          PACKAGE NAME    
     ------------------                 ------------------------                     ----------------

           IN:                                      IN:
           ---                                      ---
              STO-SS =      227438.2507                STO-SS =       1.9277E-03     STORAGE                          
                 DRN =           0.0000                   DRN =           0.0000     DRN_SYS1                         
                 RIV =      326109.7139                   RIV =        1275.8369     RIV_SYS1                         
                 RIV =           0.0000                   RIV =           0.0000     RIV_SYS2                         
                 RCH =           0.0000                   RCH =           0.0000     RCH_MSW                          

            TOTAL IN =      553547.9647              TOTAL IN =        1275.8388

          OUT:                                     OUT:
          ----                                     ----
              STO-SS =           0.0000                STO-SS =           0.0000     STORAGE                          
                 DRN =        8184.8226                   DRN =           9.3220     DRN_SYS1                         
                 RIV =      520125.0201                   RIV =        1226.8810     RIV_SYS1                         
                 RIV =       25239.8231                   RIV =          39.6359     RIV_SYS2                         
                 RCH =           0.0000                   RCH =           0.0000     RCH_MSW                          

           TOTAL OUT =      553549.6658             TOTAL OUT =        1275.8388

            IN - OUT =          -1.7012              IN - OUT =      -1.9661E-05

 PERCENT DISCREPANCY =          -0.00     PERCENT DISCREPANCY =          -0.00




         TIME SUMMARY AT END OF TIME STEP    1 IN STRESS PERIOD  288
                    SECONDS     MINUTES      HOURS       DAYS        YEARS
                    -----------------------------------------------------------
   TIME STEP LENGTH  86400.      1440.0      24.000      1.0000     2.73785E-03
 STRESS PERIOD TIME  86400.      1440.0      24.000      1.0000     2.73785E-03
         TOTAL TIME 2.48832E+07 4.14720E+05  6912.0      288.00     0.78850    


end timestep


start timestep kper="289" kstp="1" mode="normal"

 #Stressperiod Save Options

 BEGIN READING OUTPUT CONTROL FOR STRESS PERIOD 289
      ALL TIME STEPS WILL BE SAVED
      ALL TIME STEPS WILL BE SAVED

 END READING OUTPUT CONTROL FOR STRESS PERIOD 289


 PROCESSING STORAGE PERIOD DATA
 END PROCESSING STORAGE PERIOD DATA


 STRESS PERIOD 289 IS TRANSIENT


 REUSING DRNS FROM LAST STRESS PERIOD

 REUSING RIVS FROM LAST STRESS PERIOD

 REUSING RIVS FROM LAST STRESS PERIOD

 REUSING RCHS FROM LAST STRESS PERIOD
 UBDSV06 SAVING              DRN IN MODEL GWF_1            PACKAGE GWF_1           CONNECTED TO MODEL GWF_1            PACKAGE DRN_SYS1         ON UNIT   1018 AT TIME STEP      1, STRESS PERIOD    289
 UBDSV06 SAVING              RIV IN MODEL GWF_1            PACKAGE GWF_1           CONNECTED TO MODEL GWF_1            PACKAGE RIV_SYS1         ON UNIT   1018 AT TIME STEP      1, STRESS PERIOD    289
 UBDSV06 SAVING              RIV IN MODEL GWF_1            PACKAGE GWF_1           CONNECTED TO MODEL GWF_1            PACKAGE RIV_SYS2         ON UNIT   1018 AT TIME STEP      1, STRESS PERIOD    289

 HEAD WILL BE SAVED ON UNIT 1017 AT END OF TIME STEP    1, STRESS PERIOD  289


  VOLUME BUDGET FOR ENTIRE MODEL AT END OF TIME STEP    1, STRESS PERIOD 289
  ---------------------------------------------------------------------------------------------------

     CUMULATIVE VOLUME      L**3       RATES FOR THIS TIME STEP      L**3/T          PACKAGE NAME    
     ------------------                 ------------------------                     ----------------

           IN:                                      IN:
           ---                                      ---
              STO-SS =      227438.2525                STO-SS =       1.8270E-03     STORAGE                          
                 DRN =           0.0000                   DRN =           0.0000     DRN_SYS1                         
                 RIV =      327385.5508                   RIV =        1275.8369     RIV_SYS1                         
                 RIV =           0.0000                   RIV =           0.0000     RIV_SYS2                         
                 RCH =           0.0000                   RCH =           0.0000     RCH_MSW                          

            TOTAL IN =      554823.8034              TOTAL IN =        1275.8387

          OUT:                                     OUT:
          ----                                     ----
              STO-SS =           0.0000                STO-SS =           0.0000     STORAGE                          
                 DRN =        8194.1446                   DRN =           9.3219     DRN_SYS1                         
                 RIV =      521351.9010                   RIV =        1226.8809     RIV_SYS1                         
                 RIV =       25279.4590                   RIV =          39.6359     RIV_SYS2                         
                 RCH =           0.0000                   RCH =           0.0000     RCH_MSW                          

           TOTAL OUT =      554825.5046             TOTAL OUT =        1275.8387

            IN - OUT =          -1.7012              IN - OUT =      -1.8636E-05

 PERCENT DISCREPANCY =          -0.00     PERCENT DISCREPANCY =          -0.00




         TIME SUMMARY AT END OF TIME STEP    1 IN STRESS PERIOD  289
                    SECONDS     MINUTES      HOURS       DAYS        YEARS
                    -----------------------------------------------------------
   TIME STEP LENGTH  86400.      1440.0      24.000      1.0000     2.73785E-03
 STRESS PERIOD TIME  86400.      1440.0      24.000      1.0000     2.73785E-03
         TOTAL TIME 2.49696E+07 4.16160E+05  6936.0      289.00     0.79124    


end timestep


start timestep kper="290" kstp="1" mode="normal"

 #Stressperiod Save Options

 BEGIN READING OUTPUT CONTROL FOR STRESS PERIOD 290
      ALL TIME STEPS WILL BE SAVED
      ALL TIME STEPS WILL BE SAVED

 END READING OUTPUT CONTROL FOR STRESS PERIOD 290


 PROCESSING STORAGE PERIOD DATA
 END PROCESSING STORAGE PERIOD DATA


 STRESS PERIOD 290 IS TRANSIENT


 REUSING DRNS FROM LAST STRESS PERIOD

 REUSING RIVS FROM LAST STRESS PERIOD

 REUSING RIVS FROM LAST STRESS PERIOD

 REUSING RCHS FROM LAST STRESS PERIOD
 UBDSV06 SAVING              DRN IN MODEL GWF_1            PACKAGE GWF_1           CONNECTED TO MODEL GWF_1            PACKAGE DRN_SYS1         ON UNIT   1018 AT TIME STEP      1, STRESS PERIOD    290
 UBDSV06 SAVING              RIV IN MODEL GWF_1            PACKAGE GWF_1           CONNECTED TO MODEL GWF_1            PACKAGE RIV_SYS1         ON UNIT   1018 AT TIME STEP      1, STRESS PERIOD    290
 UBDSV06 SAVING              RIV IN MODEL GWF_1            PACKAGE GWF_1           CONNECTED TO MODEL GWF_1            PACKAGE RIV_SYS2         ON UNIT   1018 AT TIME STEP      1, STRESS PERIOD    290

 HEAD WILL BE SAVED ON UNIT 1017 AT END OF TIME STEP    1, STRESS PERIOD  290


  VOLUME BUDGET FOR ENTIRE MODEL AT END OF TIME STEP    1, STRESS PERIOD 290
  ---------------------------------------------------------------------------------------------------

     CUMULATIVE VOLUME      L**3       RATES FOR THIS TIME STEP      L**3/T          PACKAGE NAME    
     ------------------                 ------------------------                     ----------------

           IN:                                      IN:
           ---                                      ---
              STO-SS =      227438.2543                STO-SS =       1.7315E-03     STORAGE                          
                 DRN =           0.0000                   DRN =           0.0000     DRN_SYS1                         
                 RIV =      328661.3878                   RIV =        1275.8369     RIV_SYS1                         
                 RIV =           0.0000                   RIV =           0.0000     RIV_SYS2                         
                 RCH =           0.0000                   RCH =           0.0000     RCH_MSW                          

            TOTAL IN =      556099.6420              TOTAL IN =        1275.8387

          OUT:                                     OUT:
          ----                                     ----
              STO-SS =           0.0000                STO-SS =           0.0000     STORAGE                          
                 DRN =        8203.4665                   DRN =           9.3219     DRN_SYS1                         
                 RIV =      522578.7819                   RIV =        1226.8808     RIV_SYS1                         
                 RIV =       25319.0949                   RIV =          39.6359     RIV_SYS2                         
                 RCH =           0.0000                   RCH =           0.0000     RCH_MSW                          

           TOTAL OUT =      556101.3432             TOTAL OUT =        1275.8387

            IN - OUT =          -1.7012              IN - OUT =      -1.7664E-05

 PERCENT DISCREPANCY =          -0.00     PERCENT DISCREPANCY =          -0.00




         TIME SUMMARY AT END OF TIME STEP    1 IN STRESS PERIOD  290
                    SECONDS     MINUTES      HOURS       DAYS        YEARS
                    -----------------------------------------------------------
   TIME STEP LENGTH  86400.      1440.0      24.000      1.0000     2.73785E-03
 STRESS PERIOD TIME  86400.      1440.0      24.000      1.0000     2.73785E-03
         TOTAL TIME 2.50560E+07 4.17600E+05  6960.0      290.00     0.79398    


end timestep


start timestep kper="291" kstp="1" mode="normal"

 #Stressperiod Save Options

 BEGIN READING OUTPUT CONTROL FOR STRESS PERIOD 291
      ALL TIME STEPS WILL BE SAVED
      ALL TIME STEPS WILL BE SAVED

 END READING OUTPUT CONTROL FOR STRESS PERIOD 291


 PROCESSING STORAGE PERIOD DATA
 END PROCESSING STORAGE PERIOD DATA


 STRESS PERIOD 291 IS TRANSIENT


 REUSING DRNS FROM LAST STRESS PERIOD

 REUSING RIVS FROM LAST STRESS PERIOD

 REUSING RIVS FROM LAST STRESS PERIOD

 REUSING RCHS FROM LAST STRESS PERIOD
 UBDSV06 SAVING              DRN IN MODEL GWF_1            PACKAGE GWF_1           CONNECTED TO MODEL GWF_1            PACKAGE DRN_SYS1         ON UNIT   1018 AT TIME STEP      1, STRESS PERIOD    291
 UBDSV06 SAVING              RIV IN MODEL GWF_1            PACKAGE GWF_1           CONNECTED TO MODEL GWF_1            PACKAGE RIV_SYS1         ON UNIT   1018 AT TIME STEP      1, STRESS PERIOD    291
 UBDSV06 SAVING              RIV IN MODEL GWF_1            PACKAGE GWF_1           CONNECTED TO MODEL GWF_1            PACKAGE RIV_SYS2         ON UNIT   1018 AT TIME STEP      1, STRESS PERIOD    291

 HEAD WILL BE SAVED ON UNIT 1017 AT END OF TIME STEP    1, STRESS PERIOD  291


  VOLUME BUDGET FOR ENTIRE MODEL AT END OF TIME STEP    1, STRESS PERIOD 291
  ---------------------------------------------------------------------------------------------------

     CUMULATIVE VOLUME      L**3       RATES FOR THIS TIME STEP      L**3/T          PACKAGE NAME    
     ------------------                 ------------------------                     ----------------

           IN:                                      IN:
           ---                                      ---
              STO-SS =      227438.2559                STO-SS =       1.6410E-03     STORAGE                          
                 DRN =           0.0000                   DRN =           0.0000     DRN_SYS1                         
                 RIV =      329937.2247                   RIV =        1275.8370     RIV_SYS1                         
                 RIV =           0.0000                   RIV =           0.0000     RIV_SYS2                         
                 RCH =           0.0000                   RCH =           0.0000     RCH_MSW                          

            TOTAL IN =      557375.4806              TOTAL IN =        1275.8386

          OUT:                                     OUT:
          ----                                     ----
              STO-SS =           0.0000                STO-SS =           0.0000     STORAGE                          
                 DRN =        8212.7884                   DRN =           9.3219     DRN_SYS1                         
                 RIV =      523805.6627                   RIV =        1226.8808     RIV_SYS1                         
                 RIV =       25358.7308                   RIV =          39.6359     RIV_SYS2                         
                 RCH =           0.0000                   RCH =           0.0000     RCH_MSW                          

           TOTAL OUT =      557377.1819             TOTAL OUT =        1275.8386

            IN - OUT =          -1.7012              IN - OUT =      -1.6743E-05

 PERCENT DISCREPANCY =          -0.00     PERCENT DISCREPANCY =          -0.00




         TIME SUMMARY AT END OF TIME STEP    1 IN STRESS PERIOD  291
                    SECONDS     MINUTES      HOURS       DAYS        YEARS
                    -----------------------------------------------------------
   TIME STEP LENGTH  86400.      1440.0      24.000      1.0000     2.73785E-03
 STRESS PERIOD TIME  86400.      1440.0      24.000      1.0000     2.73785E-03
         TOTAL TIME 2.51424E+07 4.19040E+05  6984.0      291.00     0.79671    


end timestep


start timestep kper="292" kstp="1" mode="normal"

 #Stressperiod Save Options

 BEGIN READING OUTPUT CONTROL FOR STRESS PERIOD 292
      ALL TIME STEPS WILL BE SAVED
      ALL TIME STEPS WILL BE SAVED

 END READING OUTPUT CONTROL FOR STRESS PERIOD 292


 PROCESSING STORAGE PERIOD DATA
 END PROCESSING STORAGE PERIOD DATA


 STRESS PERIOD 292 IS TRANSIENT


 REUSING DRNS FROM LAST STRESS PERIOD

 REUSING RIVS FROM LAST STRESS PERIOD

 REUSING RIVS FROM LAST STRESS PERIOD

 REUSING RCHS FROM LAST STRESS PERIOD
 UBDSV06 SAVING              DRN IN MODEL GWF_1            PACKAGE GWF_1           CONNECTED TO MODEL GWF_1            PACKAGE DRN_SYS1         ON UNIT   1018 AT TIME STEP      1, STRESS PERIOD    292
 UBDSV06 SAVING              RIV IN MODEL GWF_1            PACKAGE GWF_1           CONNECTED TO MODEL GWF_1            PACKAGE RIV_SYS1         ON UNIT   1018 AT TIME STEP      1, STRESS PERIOD    292
 UBDSV06 SAVING              RIV IN MODEL GWF_1            PACKAGE GWF_1           CONNECTED TO MODEL GWF_1            PACKAGE RIV_SYS2         ON UNIT   1018 AT TIME STEP      1, STRESS PERIOD    292

 HEAD WILL BE SAVED ON UNIT 1017 AT END OF TIME STEP    1, STRESS PERIOD  292


  VOLUME BUDGET FOR ENTIRE MODEL AT END OF TIME STEP    1, STRESS PERIOD 292
  ---------------------------------------------------------------------------------------------------

     CUMULATIVE VOLUME      L**3       RATES FOR THIS TIME STEP      L**3/T          PACKAGE NAME    
     ------------------                 ------------------------                     ----------------

           IN:                                      IN:
           ---                                      ---
              STO-SS =      227438.2575                STO-SS =       1.5553E-03     STORAGE                          
                 DRN =           0.0000                   DRN =           0.0000     DRN_SYS1                         
                 RIV =      331213.0617                   RIV =        1275.8370     RIV_SYS1                         
                 RIV =           0.0000                   RIV =           0.0000     RIV_SYS2                         
                 RCH =           0.0000                   RCH =           0.0000     RCH_MSW                          

            TOTAL IN =      558651.3192              TOTAL IN =        1275.8385

          OUT:                                     OUT:
          ----                                     ----
              STO-SS =           0.0000                STO-SS =           0.0000     STORAGE                          
                 DRN =        8222.1104                   DRN =           9.3219     DRN_SYS1                         
                 RIV =      525032.5434                   RIV =        1226.8807     RIV_SYS1                         
                 RIV =       25398.3666                   RIV =          39.6359     RIV_SYS2                         
                 RCH =           0.0000                   RCH =           0.0000     RCH_MSW                          

           TOTAL OUT =      558653.0204             TOTAL OUT =        1275.8386

            IN - OUT =          -1.7012              IN - OUT =      -1.5871E-05

 PERCENT DISCREPANCY =          -0.00     PERCENT DISCREPANCY =          -0.00




         TIME SUMMARY AT END OF TIME STEP    1 IN STRESS PERIOD  292
                    SECONDS     MINUTES      HOURS       DAYS        YEARS
                    -----------------------------------------------------------
   TIME STEP LENGTH  86400.      1440.0      24.000      1.0000     2.73785E-03
 STRESS PERIOD TIME  86400.      1440.0      24.000      1.0000     2.73785E-03
         TOTAL TIME 2.52288E+07 4.20480E+05  7008.0      292.00     0.79945    


end timestep


start timestep kper="293" kstp="1" mode="normal"

 #Stressperiod Save Options

 BEGIN READING OUTPUT CONTROL FOR STRESS PERIOD 293
      ALL TIME STEPS WILL BE SAVED
      ALL TIME STEPS WILL BE SAVED

 END READING OUTPUT CONTROL FOR STRESS PERIOD 293


 PROCESSING STORAGE PERIOD DATA
 END PROCESSING STORAGE PERIOD DATA


 STRESS PERIOD 293 IS TRANSIENT


 REUSING DRNS FROM LAST STRESS PERIOD

 REUSING RIVS FROM LAST STRESS PERIOD

 REUSING RIVS FROM LAST STRESS PERIOD

 REUSING RCHS FROM LAST STRESS PERIOD
 UBDSV06 SAVING              DRN IN MODEL GWF_1            PACKAGE GWF_1           CONNECTED TO MODEL GWF_1            PACKAGE DRN_SYS1         ON UNIT   1018 AT TIME STEP      1, STRESS PERIOD    293
 UBDSV06 SAVING              RIV IN MODEL GWF_1            PACKAGE GWF_1           CONNECTED TO MODEL GWF_1            PACKAGE RIV_SYS1         ON UNIT   1018 AT TIME STEP      1, STRESS PERIOD    293
 UBDSV06 SAVING              RIV IN MODEL GWF_1            PACKAGE GWF_1           CONNECTED TO MODEL GWF_1            PACKAGE RIV_SYS2         ON UNIT   1018 AT TIME STEP      1, STRESS PERIOD    293

 HEAD WILL BE SAVED ON UNIT 1017 AT END OF TIME STEP    1, STRESS PERIOD  293


  VOLUME BUDGET FOR ENTIRE MODEL AT END OF TIME STEP    1, STRESS PERIOD 293
  ---------------------------------------------------------------------------------------------------

     CUMULATIVE VOLUME      L**3       RATES FOR THIS TIME STEP      L**3/T          PACKAGE NAME    
     ------------------                 ------------------------                     ----------------

           IN:                                      IN:
           ---                                      ---
              STO-SS =      227438.2589                STO-SS =       1.4740E-03     STORAGE                          
                 DRN =           0.0000                   DRN =           0.0000     DRN_SYS1                         
                 RIV =      332488.8987                   RIV =        1275.8370     RIV_SYS1                         
                 RIV =           0.0000                   RIV =           0.0000     RIV_SYS2                         
                 RCH =           0.0000                   RCH =           0.0000     RCH_MSW                          

            TOTAL IN =      559927.1577              TOTAL IN =        1275.8385

          OUT:                                     OUT:
          ----                                     ----
              STO-SS =           0.0000                STO-SS =           0.0000     STORAGE                          
                 DRN =        8231.4323                   DRN =           9.3219     DRN_SYS1                         
                 RIV =      526259.4241                   RIV =        1226.8807     RIV_SYS1                         
                 RIV =       25438.0025                   RIV =          39.6359     RIV_SYS2                         
                 RCH =           0.0000                   RCH =           0.0000     RCH_MSW                          

           TOTAL OUT =      559928.8589             TOTAL OUT =        1275.8385

            IN - OUT =          -1.7013              IN - OUT =      -1.5044E-05

 PERCENT DISCREPANCY =          -0.00     PERCENT DISCREPANCY =          -0.00




         TIME SUMMARY AT END OF TIME STEP    1 IN STRESS PERIOD  293
                    SECONDS     MINUTES      HOURS       DAYS        YEARS
                    -----------------------------------------------------------
   TIME STEP LENGTH  86400.      1440.0      24.000      1.0000     2.73785E-03
 STRESS PERIOD TIME  86400.      1440.0      24.000      1.0000     2.73785E-03
         TOTAL TIME 2.53152E+07 4.21920E+05  7032.0      293.00     0.80219    


end timestep


start timestep kper="294" kstp="1" mode="normal"

 #Stressperiod Save Options

 BEGIN READING OUTPUT CONTROL FOR STRESS PERIOD 294
      ALL TIME STEPS WILL BE SAVED
      ALL TIME STEPS WILL BE SAVED

 END READING OUTPUT CONTROL FOR STRESS PERIOD 294


 PROCESSING STORAGE PERIOD DATA
 END PROCESSING STORAGE PERIOD DATA


 STRESS PERIOD 294 IS TRANSIENT


 REUSING DRNS FROM LAST STRESS PERIOD

 REUSING RIVS FROM LAST STRESS PERIOD

 REUSING RIVS FROM LAST STRESS PERIOD

 REUSING RCHS FROM LAST STRESS PERIOD
 UBDSV06 SAVING              DRN IN MODEL GWF_1            PACKAGE GWF_1           CONNECTED TO MODEL GWF_1            PACKAGE DRN_SYS1         ON UNIT   1018 AT TIME STEP      1, STRESS PERIOD    294
 UBDSV06 SAVING              RIV IN MODEL GWF_1            PACKAGE GWF_1           CONNECTED TO MODEL GWF_1            PACKAGE RIV_SYS1         ON UNIT   1018 AT TIME STEP      1, STRESS PERIOD    294
 UBDSV06 SAVING              RIV IN MODEL GWF_1            PACKAGE GWF_1           CONNECTED TO MODEL GWF_1            PACKAGE RIV_SYS2         ON UNIT   1018 AT TIME STEP      1, STRESS PERIOD    294

 HEAD WILL BE SAVED ON UNIT 1017 AT END OF TIME STEP    1, STRESS PERIOD  294


  VOLUME BUDGET FOR ENTIRE MODEL AT END OF TIME STEP    1, STRESS PERIOD 294
  ---------------------------------------------------------------------------------------------------

     CUMULATIVE VOLUME      L**3       RATES FOR THIS TIME STEP      L**3/T          PACKAGE NAME    
     ------------------                 ------------------------                     ----------------

           IN:                                      IN:
           ---                                      ---
              STO-SS =      227438.2603                STO-SS =       1.3970E-03     STORAGE                          
                 DRN =           0.0000                   DRN =           0.0000     DRN_SYS1                         
                 RIV =      333764.7358                   RIV =        1275.8370     RIV_SYS1                         
                 RIV =           0.0000                   RIV =           0.0000     RIV_SYS2                         
                 RCH =           0.0000                   RCH =           0.0000     RCH_MSW                          

            TOTAL IN =      561202.9961              TOTAL IN =        1275.8384

          OUT:                                     OUT:
          ----                                     ----
              STO-SS =           0.0000                STO-SS =           0.0000     STORAGE                          
                 DRN =        8240.7542                   DRN =           9.3219     DRN_SYS1                         
                 RIV =      527486.3048                   RIV =        1226.8807     RIV_SYS1                         
                 RIV =       25477.6384                   RIV =          39.6359     RIV_SYS2                         
                 RCH =           0.0000                   RCH =           0.0000     RCH_MSW                          

           TOTAL OUT =      561204.6974             TOTAL OUT =        1275.8384

            IN - OUT =          -1.7013              IN - OUT =      -1.4261E-05

 PERCENT DISCREPANCY =          -0.00     PERCENT DISCREPANCY =          -0.00




         TIME SUMMARY AT END OF TIME STEP    1 IN STRESS PERIOD  294
                    SECONDS     MINUTES      HOURS       DAYS        YEARS
                    -----------------------------------------------------------
   TIME STEP LENGTH  86400.      1440.0      24.000      1.0000     2.73785E-03
 STRESS PERIOD TIME  86400.      1440.0      24.000      1.0000     2.73785E-03
         TOTAL TIME 2.54016E+07 4.23360E+05  7056.0      294.00     0.80493    


end timestep


start timestep kper="295" kstp="1" mode="normal"

 #Stressperiod Save Options

 BEGIN READING OUTPUT CONTROL FOR STRESS PERIOD 295
      ALL TIME STEPS WILL BE SAVED
      ALL TIME STEPS WILL BE SAVED

 END READING OUTPUT CONTROL FOR STRESS PERIOD 295


 PROCESSING STORAGE PERIOD DATA
 END PROCESSING STORAGE PERIOD DATA


 STRESS PERIOD 295 IS TRANSIENT


 REUSING DRNS FROM LAST STRESS PERIOD

 REUSING RIVS FROM LAST STRESS PERIOD

 REUSING RIVS FROM LAST STRESS PERIOD

 REUSING RCHS FROM LAST STRESS PERIOD
 UBDSV06 SAVING              DRN IN MODEL GWF_1            PACKAGE GWF_1           CONNECTED TO MODEL GWF_1            PACKAGE DRN_SYS1         ON UNIT   1018 AT TIME STEP      1, STRESS PERIOD    295
 UBDSV06 SAVING              RIV IN MODEL GWF_1            PACKAGE GWF_1           CONNECTED TO MODEL GWF_1            PACKAGE RIV_SYS1         ON UNIT   1018 AT TIME STEP      1, STRESS PERIOD    295
 UBDSV06 SAVING              RIV IN MODEL GWF_1            PACKAGE GWF_1           CONNECTED TO MODEL GWF_1            PACKAGE RIV_SYS2         ON UNIT   1018 AT TIME STEP      1, STRESS PERIOD    295

 HEAD WILL BE SAVED ON UNIT 1017 AT END OF TIME STEP    1, STRESS PERIOD  295


  VOLUME BUDGET FOR ENTIRE MODEL AT END OF TIME STEP    1, STRESS PERIOD 295
  ---------------------------------------------------------------------------------------------------

     CUMULATIVE VOLUME      L**3       RATES FOR THIS TIME STEP      L**3/T          PACKAGE NAME    
     ------------------                 ------------------------                     ----------------

           IN:                                      IN:
           ---                                      ---
              STO-SS =      227438.2617                STO-SS =       1.3240E-03     STORAGE                          
                 DRN =           0.0000                   DRN =           0.0000     DRN_SYS1                         
                 RIV =      335040.5728                   RIV =        1275.8371     RIV_SYS1                         
                 RIV =           0.0000                   RIV =           0.0000     RIV_SYS2                         
                 RCH =           0.0000                   RCH =           0.0000     RCH_MSW                          

            TOTAL IN =      562478.8345              TOTAL IN =        1275.8384

          OUT:                                     OUT:
          ----                                     ----
              STO-SS =           0.0000                STO-SS =           0.0000     STORAGE                          
                 DRN =        8250.0762                   DRN =           9.3219     DRN_SYS1                         
                 RIV =      528713.1854                   RIV =        1226.8806     RIV_SYS1                         
                 RIV =       25517.2742                   RIV =          39.6359     RIV_SYS2                         
                 RCH =           0.0000                   RCH =           0.0000     RCH_MSW                          

           TOTAL OUT =      562480.5358             TOTAL OUT =        1275.8384

            IN - OUT =          -1.7013              IN - OUT =      -1.3518E-05

 PERCENT DISCREPANCY =          -0.00     PERCENT DISCREPANCY =          -0.00




         TIME SUMMARY AT END OF TIME STEP    1 IN STRESS PERIOD  295
                    SECONDS     MINUTES      HOURS       DAYS        YEARS
                    -----------------------------------------------------------
   TIME STEP LENGTH  86400.      1440.0      24.000      1.0000     2.73785E-03
 STRESS PERIOD TIME  86400.      1440.0      24.000      1.0000     2.73785E-03
         TOTAL TIME 2.54880E+07 4.24800E+05  7080.0      295.00     0.80767    


end timestep


start timestep kper="296" kstp="1" mode="normal"

 #Stressperiod Save Options

 BEGIN READING OUTPUT CONTROL FOR STRESS PERIOD 296
      ALL TIME STEPS WILL BE SAVED
      ALL TIME STEPS WILL BE SAVED

 END READING OUTPUT CONTROL FOR STRESS PERIOD 296


 PROCESSING STORAGE PERIOD DATA
 END PROCESSING STORAGE PERIOD DATA


 STRESS PERIOD 296 IS TRANSIENT


 REUSING DRNS FROM LAST STRESS PERIOD

 REUSING RIVS FROM LAST STRESS PERIOD

 REUSING RIVS FROM LAST STRESS PERIOD

 REUSING RCHS FROM LAST STRESS PERIOD
 UBDSV06 SAVING              DRN IN MODEL GWF_1            PACKAGE GWF_1           CONNECTED TO MODEL GWF_1            PACKAGE DRN_SYS1         ON UNIT   1018 AT TIME STEP      1, STRESS PERIOD    296
 UBDSV06 SAVING              RIV IN MODEL GWF_1            PACKAGE GWF_1           CONNECTED TO MODEL GWF_1            PACKAGE RIV_SYS1         ON UNIT   1018 AT TIME STEP      1, STRESS PERIOD    296
 UBDSV06 SAVING              RIV IN MODEL GWF_1            PACKAGE GWF_1           CONNECTED TO MODEL GWF_1            PACKAGE RIV_SYS2         ON UNIT   1018 AT TIME STEP      1, STRESS PERIOD    296

 HEAD WILL BE SAVED ON UNIT 1017 AT END OF TIME STEP    1, STRESS PERIOD  296


  VOLUME BUDGET FOR ENTIRE MODEL AT END OF TIME STEP    1, STRESS PERIOD 296
  ---------------------------------------------------------------------------------------------------

     CUMULATIVE VOLUME      L**3       RATES FOR THIS TIME STEP      L**3/T          PACKAGE NAME    
     ------------------                 ------------------------                     ----------------

           IN:                                      IN:
           ---                                      ---
              STO-SS =      227438.2629                STO-SS =       1.2548E-03     STORAGE                          
                 DRN =           0.0000                   DRN =           0.0000     DRN_SYS1                         
                 RIV =      336316.4099                   RIV =        1275.8371     RIV_SYS1                         
                 RIV =           0.0000                   RIV =           0.0000     RIV_SYS2                         
                 RCH =           0.0000                   RCH =           0.0000     RCH_MSW                          

            TOTAL IN =      563754.6728              TOTAL IN =        1275.8383

          OUT:                                     OUT:
          ----                                     ----
              STO-SS =           0.0000                STO-SS =           0.0000     STORAGE                          
                 DRN =        8259.3981                   DRN =           9.3219     DRN_SYS1                         
                 RIV =      529940.0659                   RIV =        1226.8806     RIV_SYS1                         
                 RIV =       25556.9101                   RIV =          39.6359     RIV_SYS2                         
                 RCH =           0.0000                   RCH =           0.0000     RCH_MSW                          

           TOTAL OUT =      563756.3741             TOTAL OUT =        1275.8383

            IN - OUT =          -1.7013              IN - OUT =      -1.2815E-05

 PERCENT DISCREPANCY =          -0.00     PERCENT DISCREPANCY =          -0.00




         TIME SUMMARY AT END OF TIME STEP    1 IN STRESS PERIOD  296
                    SECONDS     MINUTES      HOURS       DAYS        YEARS
                    -----------------------------------------------------------
   TIME STEP LENGTH  86400.      1440.0      24.000      1.0000     2.73785E-03
 STRESS PERIOD TIME  86400.      1440.0      24.000      1.0000     2.73785E-03
         TOTAL TIME 2.55744E+07 4.26240E+05  7104.0      296.00     0.81040    


end timestep


start timestep kper="297" kstp="1" mode="normal"

 #Stressperiod Save Options

 BEGIN READING OUTPUT CONTROL FOR STRESS PERIOD 297
      ALL TIME STEPS WILL BE SAVED
      ALL TIME STEPS WILL BE SAVED

 END READING OUTPUT CONTROL FOR STRESS PERIOD 297


 PROCESSING STORAGE PERIOD DATA
 END PROCESSING STORAGE PERIOD DATA


 STRESS PERIOD 297 IS TRANSIENT


 REUSING DRNS FROM LAST STRESS PERIOD

 REUSING RIVS FROM LAST STRESS PERIOD

 REUSING RIVS FROM LAST STRESS PERIOD

 REUSING RCHS FROM LAST STRESS PERIOD
 UBDSV06 SAVING              DRN IN MODEL GWF_1            PACKAGE GWF_1           CONNECTED TO MODEL GWF_1            PACKAGE DRN_SYS1         ON UNIT   1018 AT TIME STEP      1, STRESS PERIOD    297
 UBDSV06 SAVING              RIV IN MODEL GWF_1            PACKAGE GWF_1           CONNECTED TO MODEL GWF_1            PACKAGE RIV_SYS1         ON UNIT   1018 AT TIME STEP      1, STRESS PERIOD    297
 UBDSV06 SAVING              RIV IN MODEL GWF_1            PACKAGE GWF_1           CONNECTED TO MODEL GWF_1            PACKAGE RIV_SYS2         ON UNIT   1018 AT TIME STEP      1, STRESS PERIOD    297

 HEAD WILL BE SAVED ON UNIT 1017 AT END OF TIME STEP    1, STRESS PERIOD  297


  VOLUME BUDGET FOR ENTIRE MODEL AT END OF TIME STEP    1, STRESS PERIOD 297
  ---------------------------------------------------------------------------------------------------

     CUMULATIVE VOLUME      L**3       RATES FOR THIS TIME STEP      L**3/T          PACKAGE NAME    
     ------------------                 ------------------------                     ----------------

           IN:                                      IN:
           ---                                      ---
              STO-SS =      227438.2641                STO-SS =       1.1892E-03     STORAGE                          
                 DRN =           0.0000                   DRN =           0.0000     DRN_SYS1                         
                 RIV =      337592.2470                   RIV =        1275.8371     RIV_SYS1                         
                 RIV =           0.0000                   RIV =           0.0000     RIV_SYS2                         
                 RCH =           0.0000                   RCH =           0.0000     RCH_MSW                          

            TOTAL IN =      565030.5111              TOTAL IN =        1275.8383

          OUT:                                     OUT:
          ----                                     ----
              STO-SS =           0.0000                STO-SS =           0.0000     STORAGE                          
                 DRN =        8268.7200                   DRN =           9.3219     DRN_SYS1                         
                 RIV =      531166.9465                   RIV =        1226.8805     RIV_SYS1                         
                 RIV =       25596.5459                   RIV =          39.6358     RIV_SYS2                         
                 RCH =           0.0000                   RCH =           0.0000     RCH_MSW                          

           TOTAL OUT =      565032.2124             TOTAL OUT =        1275.8383

            IN - OUT =          -1.7013              IN - OUT =      -1.2149E-05

 PERCENT DISCREPANCY =          -0.00     PERCENT DISCREPANCY =          -0.00




         TIME SUMMARY AT END OF TIME STEP    1 IN STRESS PERIOD  297
                    SECONDS     MINUTES      HOURS       DAYS        YEARS
                    -----------------------------------------------------------
   TIME STEP LENGTH  86400.      1440.0      24.000      1.0000     2.73785E-03
 STRESS PERIOD TIME  86400.      1440.0      24.000      1.0000     2.73785E-03
         TOTAL TIME 2.56608E+07 4.27680E+05  7128.0      297.00     0.81314    


end timestep


start timestep kper="298" kstp="1" mode="normal"

 #Stressperiod Save Options

 BEGIN READING OUTPUT CONTROL FOR STRESS PERIOD 298
      ALL TIME STEPS WILL BE SAVED
      ALL TIME STEPS WILL BE SAVED

 END READING OUTPUT CONTROL FOR STRESS PERIOD 298


 PROCESSING STORAGE PERIOD DATA
 END PROCESSING STORAGE PERIOD DATA


 STRESS PERIOD 298 IS TRANSIENT


 REUSING DRNS FROM LAST STRESS PERIOD

 REUSING RIVS FROM LAST STRESS PERIOD

 REUSING RIVS FROM LAST STRESS PERIOD

 REUSING RCHS FROM LAST STRESS PERIOD
 UBDSV06 SAVING              DRN IN MODEL GWF_1            PACKAGE GWF_1           CONNECTED TO MODEL GWF_1            PACKAGE DRN_SYS1         ON UNIT   1018 AT TIME STEP      1, STRESS PERIOD    298
 UBDSV06 SAVING              RIV IN MODEL GWF_1            PACKAGE GWF_1           CONNECTED TO MODEL GWF_1            PACKAGE RIV_SYS1         ON UNIT   1018 AT TIME STEP      1, STRESS PERIOD    298
 UBDSV06 SAVING              RIV IN MODEL GWF_1            PACKAGE GWF_1           CONNECTED TO MODEL GWF_1            PACKAGE RIV_SYS2         ON UNIT   1018 AT TIME STEP      1, STRESS PERIOD    298

 HEAD WILL BE SAVED ON UNIT 1017 AT END OF TIME STEP    1, STRESS PERIOD  298


  VOLUME BUDGET FOR ENTIRE MODEL AT END OF TIME STEP    1, STRESS PERIOD 298
  ---------------------------------------------------------------------------------------------------

     CUMULATIVE VOLUME      L**3       RATES FOR THIS TIME STEP      L**3/T          PACKAGE NAME    
     ------------------                 ------------------------                     ----------------

           IN:                                      IN:
           ---                                      ---
              STO-SS =      227438.2652                STO-SS =       1.1271E-03     STORAGE                          
                 DRN =           0.0000                   DRN =           0.0000     DRN_SYS1                         
                 RIV =      338868.0841                   RIV =        1275.8371     RIV_SYS1                         
                 RIV =           0.0000                   RIV =           0.0000     RIV_SYS2                         
                 RCH =           0.0000                   RCH =           0.0000     RCH_MSW                          

            TOTAL IN =      566306.3494              TOTAL IN =        1275.8382

          OUT:                                     OUT:
          ----                                     ----
              STO-SS =           0.0000                STO-SS =           0.0000     STORAGE                          
                 DRN =        8278.0420                   DRN =           9.3219     DRN_SYS1                         
                 RIV =      532393.8270                   RIV =        1226.8805     RIV_SYS1                         
                 RIV =       25636.1818                   RIV =          39.6358     RIV_SYS2                         
                 RCH =           0.0000                   RCH =           0.0000     RCH_MSW                          

           TOTAL OUT =      566308.0507             TOTAL OUT =        1275.8383

            IN - OUT =          -1.7013              IN - OUT =      -1.1517E-05

 PERCENT DISCREPANCY =          -0.00     PERCENT DISCREPANCY =          -0.00




         TIME SUMMARY AT END OF TIME STEP    1 IN STRESS PERIOD  298
                    SECONDS     MINUTES      HOURS       DAYS        YEARS
                    -----------------------------------------------------------
   TIME STEP LENGTH  86400.      1440.0      24.000      1.0000     2.73785E-03
 STRESS PERIOD TIME  86400.      1440.0      24.000      1.0000     2.73785E-03
         TOTAL TIME 2.57472E+07 4.29120E+05  7152.0      298.00     0.81588    


end timestep


start timestep kper="299" kstp="1" mode="normal"

 #Stressperiod Save Options

 BEGIN READING OUTPUT CONTROL FOR STRESS PERIOD 299
      ALL TIME STEPS WILL BE SAVED
      ALL TIME STEPS WILL BE SAVED

 END READING OUTPUT CONTROL FOR STRESS PERIOD 299


 PROCESSING STORAGE PERIOD DATA
 END PROCESSING STORAGE PERIOD DATA


 STRESS PERIOD 299 IS TRANSIENT


 REUSING DRNS FROM LAST STRESS PERIOD

 REUSING RIVS FROM LAST STRESS PERIOD

 REUSING RIVS FROM LAST STRESS PERIOD

 REUSING RCHS FROM LAST STRESS PERIOD
 UBDSV06 SAVING              DRN IN MODEL GWF_1            PACKAGE GWF_1           CONNECTED TO MODEL GWF_1            PACKAGE DRN_SYS1         ON UNIT   1018 AT TIME STEP      1, STRESS PERIOD    299
 UBDSV06 SAVING              RIV IN MODEL GWF_1            PACKAGE GWF_1           CONNECTED TO MODEL GWF_1            PACKAGE RIV_SYS1         ON UNIT   1018 AT TIME STEP      1, STRESS PERIOD    299
 UBDSV06 SAVING              RIV IN MODEL GWF_1            PACKAGE GWF_1           CONNECTED TO MODEL GWF_1            PACKAGE RIV_SYS2         ON UNIT   1018 AT TIME STEP      1, STRESS PERIOD    299

 HEAD WILL BE SAVED ON UNIT 1017 AT END OF TIME STEP    1, STRESS PERIOD  299


  VOLUME BUDGET FOR ENTIRE MODEL AT END OF TIME STEP    1, STRESS PERIOD 299
  ---------------------------------------------------------------------------------------------------

     CUMULATIVE VOLUME      L**3       RATES FOR THIS TIME STEP      L**3/T          PACKAGE NAME    
     ------------------                 ------------------------                     ----------------

           IN:                                      IN:
           ---                                      ---
              STO-SS =      227438.2663                STO-SS =       1.0682E-03     STORAGE                          
                 DRN =           0.0000                   DRN =           0.0000     DRN_SYS1                         
                 RIV =      340143.9213                   RIV =        1275.8371     RIV_SYS1                         
                 RIV =           0.0000                   RIV =           0.0000     RIV_SYS2                         
                 RCH =           0.0000                   RCH =           0.0000     RCH_MSW                          

            TOTAL IN =      567582.1876              TOTAL IN =        1275.8382

          OUT:                                     OUT:
          ----                                     ----
              STO-SS =           0.0000                STO-SS =           0.0000     STORAGE                          
                 DRN =        8287.3639                   DRN =           9.3219     DRN_SYS1                         
                 RIV =      533620.7074                   RIV =        1226.8805     RIV_SYS1                         
                 RIV =       25675.8176                   RIV =          39.6358     RIV_SYS2                         
                 RCH =           0.0000                   RCH =           0.0000     RCH_MSW                          

           TOTAL OUT =      567583.8889             TOTAL OUT =        1275.8382

            IN - OUT =          -1.7013              IN - OUT =      -1.0919E-05

 PERCENT DISCREPANCY =          -0.00     PERCENT DISCREPANCY =          -0.00




         TIME SUMMARY AT END OF TIME STEP    1 IN STRESS PERIOD  299
                    SECONDS     MINUTES      HOURS       DAYS        YEARS
                    -----------------------------------------------------------
   TIME STEP LENGTH  86400.      1440.0      24.000      1.0000     2.73785E-03
 STRESS PERIOD TIME  86400.      1440.0      24.000      1.0000     2.73785E-03
         TOTAL TIME 2.58336E+07 4.30560E+05  7176.0      299.00     0.81862    


end timestep


start timestep kper="300" kstp="1" mode="normal"

 #Stressperiod Save Options

 BEGIN READING OUTPUT CONTROL FOR STRESS PERIOD 300
      ALL TIME STEPS WILL BE SAVED
      ALL TIME STEPS WILL BE SAVED

 END READING OUTPUT CONTROL FOR STRESS PERIOD 300


 PROCESSING STORAGE PERIOD DATA
 END PROCESSING STORAGE PERIOD DATA


 STRESS PERIOD 300 IS TRANSIENT


 REUSING DRNS FROM LAST STRESS PERIOD

 REUSING RIVS FROM LAST STRESS PERIOD

 REUSING RIVS FROM LAST STRESS PERIOD

 REUSING RCHS FROM LAST STRESS PERIOD
 UBDSV06 SAVING              DRN IN MODEL GWF_1            PACKAGE GWF_1           CONNECTED TO MODEL GWF_1            PACKAGE DRN_SYS1         ON UNIT   1018 AT TIME STEP      1, STRESS PERIOD    300
 UBDSV06 SAVING              RIV IN MODEL GWF_1            PACKAGE GWF_1           CONNECTED TO MODEL GWF_1            PACKAGE RIV_SYS1         ON UNIT   1018 AT TIME STEP      1, STRESS PERIOD    300
 UBDSV06 SAVING              RIV IN MODEL GWF_1            PACKAGE GWF_1           CONNECTED TO MODEL GWF_1            PACKAGE RIV_SYS2         ON UNIT   1018 AT TIME STEP      1, STRESS PERIOD    300

 HEAD WILL BE SAVED ON UNIT 1017 AT END OF TIME STEP    1, STRESS PERIOD  300


  VOLUME BUDGET FOR ENTIRE MODEL AT END OF TIME STEP    1, STRESS PERIOD 300
  ---------------------------------------------------------------------------------------------------

     CUMULATIVE VOLUME      L**3       RATES FOR THIS TIME STEP      L**3/T          PACKAGE NAME    
     ------------------                 ------------------------                     ----------------

           IN:                                      IN:
           ---                                      ---
              STO-SS =      227438.2673                STO-SS =       1.0124E-03     STORAGE                          
                 DRN =           0.0000                   DRN =           0.0000     DRN_SYS1                         
                 RIV =      341419.7584                   RIV =        1275.8372     RIV_SYS1                         
                 RIV =           0.0000                   RIV =           0.0000     RIV_SYS2                         
                 RCH =           0.0000                   RCH =           0.0000     RCH_MSW                          

            TOTAL IN =      568858.0257              TOTAL IN =        1275.8382

          OUT:                                     OUT:
          ----                                     ----
              STO-SS =           0.0000                STO-SS =           0.0000     STORAGE                          
                 DRN =        8296.6858                   DRN =           9.3219     DRN_SYS1                         
                 RIV =      534847.5878                   RIV =        1226.8804     RIV_SYS1                         
                 RIV =       25715.4534                   RIV =          39.6358     RIV_SYS2                         
                 RCH =           0.0000                   RCH =           0.0000     RCH_MSW                          

           TOTAL OUT =      568859.7271             TOTAL OUT =        1275.8382

            IN - OUT =          -1.7013              IN - OUT =      -1.0353E-05

 PERCENT DISCREPANCY =          -0.00     PERCENT DISCREPANCY =          -0.00




         TIME SUMMARY AT END OF TIME STEP    1 IN STRESS PERIOD  300
                    SECONDS     MINUTES      HOURS       DAYS        YEARS
                    -----------------------------------------------------------
   TIME STEP LENGTH  86400.      1440.0      24.000      1.0000     2.73785E-03
 STRESS PERIOD TIME  86400.      1440.0      24.000      1.0000     2.73785E-03
         TOTAL TIME 2.59200E+07 4.32000E+05  7200.0      300.00     0.82136    


end timestep


start timestep kper="301" kstp="1" mode="normal"

 #Stressperiod Save Options

 BEGIN READING OUTPUT CONTROL FOR STRESS PERIOD 301
      ALL TIME STEPS WILL BE SAVED
      ALL TIME STEPS WILL BE SAVED

 END READING OUTPUT CONTROL FOR STRESS PERIOD 301


 PROCESSING STORAGE PERIOD DATA
 END PROCESSING STORAGE PERIOD DATA


 STRESS PERIOD 301 IS TRANSIENT


 REUSING DRNS FROM LAST STRESS PERIOD

 REUSING RIVS FROM LAST STRESS PERIOD

 REUSING RIVS FROM LAST STRESS PERIOD

 REUSING RCHS FROM LAST STRESS PERIOD
 UBDSV06 SAVING              DRN IN MODEL GWF_1            PACKAGE GWF_1           CONNECTED TO MODEL GWF_1            PACKAGE DRN_SYS1         ON UNIT   1018 AT TIME STEP      1, STRESS PERIOD    301
 UBDSV06 SAVING              RIV IN MODEL GWF_1            PACKAGE GWF_1           CONNECTED TO MODEL GWF_1            PACKAGE RIV_SYS1         ON UNIT   1018 AT TIME STEP      1, STRESS PERIOD    301
 UBDSV06 SAVING              RIV IN MODEL GWF_1            PACKAGE GWF_1           CONNECTED TO MODEL GWF_1            PACKAGE RIV_SYS2         ON UNIT   1018 AT TIME STEP      1, STRESS PERIOD    301

 HEAD WILL BE SAVED ON UNIT 1017 AT END OF TIME STEP    1, STRESS PERIOD  301


  VOLUME BUDGET FOR ENTIRE MODEL AT END OF TIME STEP    1, STRESS PERIOD 301
  ---------------------------------------------------------------------------------------------------

     CUMULATIVE VOLUME      L**3       RATES FOR THIS TIME STEP      L**3/T          PACKAGE NAME    
     ------------------                 ------------------------                     ----------------

           IN:                                      IN:
           ---                                      ---
              STO-SS =      227438.2683                STO-SS =       9.5946E-04     STORAGE                          
                 DRN =           0.0000                   DRN =           0.0000     DRN_SYS1                         
                 RIV =      342695.5956                   RIV =        1275.8372     RIV_SYS1                         
                 RIV =           0.0000                   RIV =           0.0000     RIV_SYS2                         
                 RCH =           0.0000                   RCH =           0.0000     RCH_MSW                          

            TOTAL IN =      570133.8639              TOTAL IN =        1275.8381

          OUT:                                     OUT:
          ----                                     ----
              STO-SS =           0.0000                STO-SS =           0.0000     STORAGE                          
                 DRN =        8306.0077                   DRN =           9.3219     DRN_SYS1                         
                 RIV =      536074.4682                   RIV =        1226.8804     RIV_SYS1                         
                 RIV =       25755.0893                   RIV =          39.6358     RIV_SYS2                         
                 RCH =           0.0000                   RCH =           0.0000     RCH_MSW                          

           TOTAL OUT =      570135.5652             TOTAL OUT =        1275.8381

            IN - OUT =          -1.7014              IN - OUT =      -9.8156E-06

 PERCENT DISCREPANCY =          -0.00     PERCENT DISCREPANCY =          -0.00




         TIME SUMMARY AT END OF TIME STEP    1 IN STRESS PERIOD  301
                    SECONDS     MINUTES      HOURS       DAYS        YEARS
                    -----------------------------------------------------------
   TIME STEP LENGTH  86400.      1440.0      24.000      1.0000     2.73785E-03
 STRESS PERIOD TIME  86400.      1440.0      24.000      1.0000     2.73785E-03
         TOTAL TIME 2.60064E+07 4.33440E+05  7224.0      301.00     0.82409    


end timestep


start timestep kper="302" kstp="1" mode="normal"

 #Stressperiod Save Options

 BEGIN READING OUTPUT CONTROL FOR STRESS PERIOD 302
      ALL TIME STEPS WILL BE SAVED
      ALL TIME STEPS WILL BE SAVED

 END READING OUTPUT CONTROL FOR STRESS PERIOD 302


 PROCESSING STORAGE PERIOD DATA
 END PROCESSING STORAGE PERIOD DATA


 STRESS PERIOD 302 IS TRANSIENT


 REUSING DRNS FROM LAST STRESS PERIOD

 REUSING RIVS FROM LAST STRESS PERIOD

 REUSING RIVS FROM LAST STRESS PERIOD

 REUSING RCHS FROM LAST STRESS PERIOD
 UBDSV06 SAVING              DRN IN MODEL GWF_1            PACKAGE GWF_1           CONNECTED TO MODEL GWF_1            PACKAGE DRN_SYS1         ON UNIT   1018 AT TIME STEP      1, STRESS PERIOD    302
 UBDSV06 SAVING              RIV IN MODEL GWF_1            PACKAGE GWF_1           CONNECTED TO MODEL GWF_1            PACKAGE RIV_SYS1         ON UNIT   1018 AT TIME STEP      1, STRESS PERIOD    302
 UBDSV06 SAVING              RIV IN MODEL GWF_1            PACKAGE GWF_1           CONNECTED TO MODEL GWF_1            PACKAGE RIV_SYS2         ON UNIT   1018 AT TIME STEP      1, STRESS PERIOD    302

 HEAD WILL BE SAVED ON UNIT 1017 AT END OF TIME STEP    1, STRESS PERIOD  302


  VOLUME BUDGET FOR ENTIRE MODEL AT END OF TIME STEP    1, STRESS PERIOD 302
  ---------------------------------------------------------------------------------------------------

     CUMULATIVE VOLUME      L**3       RATES FOR THIS TIME STEP      L**3/T          PACKAGE NAME    
     ------------------                 ------------------------                     ----------------

           IN:                                      IN:
           ---                                      ---
              STO-SS =      227438.2692                STO-SS =       9.0932E-04     STORAGE                          
                 DRN =           0.0000                   DRN =           0.0000     DRN_SYS1                         
                 RIV =      343971.4328                   RIV =        1275.8372     RIV_SYS1                         
                 RIV =           0.0000                   RIV =           0.0000     RIV_SYS2                         
                 RCH =           0.0000                   RCH =           0.0000     RCH_MSW                          

            TOTAL IN =      571409.7020              TOTAL IN =        1275.8381

          OUT:                                     OUT:
          ----                                     ----
              STO-SS =           0.0000                STO-SS =           0.0000     STORAGE                          
                 DRN =        8315.3296                   DRN =           9.3219     DRN_SYS1                         
                 RIV =      537301.3486                   RIV =        1226.8804     RIV_SYS1                         
                 RIV =       25794.7251                   RIV =          39.6358     RIV_SYS2                         
                 RCH =           0.0000                   RCH =           0.0000     RCH_MSW                          

           TOTAL OUT =      571411.4033             TOTAL OUT =        1275.8381

            IN - OUT =          -1.7014              IN - OUT =      -9.3071E-06

 PERCENT DISCREPANCY =          -0.00     PERCENT DISCREPANCY =          -0.00




         TIME SUMMARY AT END OF TIME STEP    1 IN STRESS PERIOD  302
                    SECONDS     MINUTES      HOURS       DAYS        YEARS
                    -----------------------------------------------------------
   TIME STEP LENGTH  86400.      1440.0      24.000      1.0000     2.73785E-03
 STRESS PERIOD TIME  86400.      1440.0      24.000      1.0000     2.73785E-03
         TOTAL TIME 2.60928E+07 4.34880E+05  7248.0      302.00     0.82683    


end timestep


start timestep kper="303" kstp="1" mode="normal"

 #Stressperiod Save Options

 BEGIN READING OUTPUT CONTROL FOR STRESS PERIOD 303
      ALL TIME STEPS WILL BE SAVED
      ALL TIME STEPS WILL BE SAVED

 END READING OUTPUT CONTROL FOR STRESS PERIOD 303


 PROCESSING STORAGE PERIOD DATA
 END PROCESSING STORAGE PERIOD DATA


 STRESS PERIOD 303 IS TRANSIENT


 REUSING DRNS FROM LAST STRESS PERIOD

 REUSING RIVS FROM LAST STRESS PERIOD

 REUSING RIVS FROM LAST STRESS PERIOD

 REUSING RCHS FROM LAST STRESS PERIOD
 UBDSV06 SAVING              DRN IN MODEL GWF_1            PACKAGE GWF_1           CONNECTED TO MODEL GWF_1            PACKAGE DRN_SYS1         ON UNIT   1018 AT TIME STEP      1, STRESS PERIOD    303
 UBDSV06 SAVING              RIV IN MODEL GWF_1            PACKAGE GWF_1           CONNECTED TO MODEL GWF_1            PACKAGE RIV_SYS1         ON UNIT   1018 AT TIME STEP      1, STRESS PERIOD    303
 UBDSV06 SAVING              RIV IN MODEL GWF_1            PACKAGE GWF_1           CONNECTED TO MODEL GWF_1            PACKAGE RIV_SYS2         ON UNIT   1018 AT TIME STEP      1, STRESS PERIOD    303

 HEAD WILL BE SAVED ON UNIT 1017 AT END OF TIME STEP    1, STRESS PERIOD  303


  VOLUME BUDGET FOR ENTIRE MODEL AT END OF TIME STEP    1, STRESS PERIOD 303
  ---------------------------------------------------------------------------------------------------

     CUMULATIVE VOLUME      L**3       RATES FOR THIS TIME STEP      L**3/T          PACKAGE NAME    
     ------------------                 ------------------------                     ----------------

           IN:                                      IN:
           ---                                      ---
              STO-SS =      227438.2700                STO-SS =       8.6180E-04     STORAGE                          
                 DRN =           0.0000                   DRN =           0.0000     DRN_SYS1                         
                 RIV =      345247.2700                   RIV =        1275.8372     RIV_SYS1                         
                 RIV =           0.0000                   RIV =           0.0000     RIV_SYS2                         
                 RCH =           0.0000                   RCH =           0.0000     RCH_MSW                          

            TOTAL IN =      572685.5400              TOTAL IN =        1275.8381

          OUT:                                     OUT:
          ----                                     ----
              STO-SS =           0.0000                STO-SS =           0.0000     STORAGE                          
                 DRN =        8324.6515                   DRN =           9.3219     DRN_SYS1                         
                 RIV =      538528.2289                   RIV =        1226.8803     RIV_SYS1                         
                 RIV =       25834.3609                   RIV =          39.6358     RIV_SYS2                         
                 RCH =           0.0000                   RCH =           0.0000     RCH_MSW                          

           TOTAL OUT =      572687.2414             TOTAL OUT =        1275.8381

            IN - OUT =          -1.7014              IN - OUT =      -8.8254E-06

 PERCENT DISCREPANCY =          -0.00     PERCENT DISCREPANCY =          -0.00




         TIME SUMMARY AT END OF TIME STEP    1 IN STRESS PERIOD  303
                    SECONDS     MINUTES      HOURS       DAYS        YEARS
                    -----------------------------------------------------------
   TIME STEP LENGTH  86400.      1440.0      24.000      1.0000     2.73785E-03
 STRESS PERIOD TIME  86400.      1440.0      24.000      1.0000     2.73785E-03
         TOTAL TIME 2.61792E+07 4.36320E+05  7272.0      303.00     0.82957    


end timestep


start timestep kper="304" kstp="1" mode="normal"

 #Stressperiod Save Options

 BEGIN READING OUTPUT CONTROL FOR STRESS PERIOD 304
      ALL TIME STEPS WILL BE SAVED
      ALL TIME STEPS WILL BE SAVED

 END READING OUTPUT CONTROL FOR STRESS PERIOD 304


 PROCESSING STORAGE PERIOD DATA
 END PROCESSING STORAGE PERIOD DATA


 STRESS PERIOD 304 IS TRANSIENT


 REUSING DRNS FROM LAST STRESS PERIOD

 REUSING RIVS FROM LAST STRESS PERIOD

 REUSING RIVS FROM LAST STRESS PERIOD

 REUSING RCHS FROM LAST STRESS PERIOD
 UBDSV06 SAVING              DRN IN MODEL GWF_1            PACKAGE GWF_1           CONNECTED TO MODEL GWF_1            PACKAGE DRN_SYS1         ON UNIT   1018 AT TIME STEP      1, STRESS PERIOD    304
 UBDSV06 SAVING              RIV IN MODEL GWF_1            PACKAGE GWF_1           CONNECTED TO MODEL GWF_1            PACKAGE RIV_SYS1         ON UNIT   1018 AT TIME STEP      1, STRESS PERIOD    304
 UBDSV06 SAVING              RIV IN MODEL GWF_1            PACKAGE GWF_1           CONNECTED TO MODEL GWF_1            PACKAGE RIV_SYS2         ON UNIT   1018 AT TIME STEP      1, STRESS PERIOD    304

 HEAD WILL BE SAVED ON UNIT 1017 AT END OF TIME STEP    1, STRESS PERIOD  304


  VOLUME BUDGET FOR ENTIRE MODEL AT END OF TIME STEP    1, STRESS PERIOD 304
  ---------------------------------------------------------------------------------------------------

     CUMULATIVE VOLUME      L**3       RATES FOR THIS TIME STEP      L**3/T          PACKAGE NAME    
     ------------------                 ------------------------                     ----------------

           IN:                                      IN:
           ---                                      ---
              STO-SS =      227438.2709                STO-SS =       8.1676E-04     STORAGE                          
                 DRN =           0.0000                   DRN =           0.0000     DRN_SYS1                         
                 RIV =      346523.1072                   RIV =        1275.8372     RIV_SYS1                         
                 RIV =           0.0000                   RIV =           0.0000     RIV_SYS2                         
                 RCH =           0.0000                   RCH =           0.0000     RCH_MSW                          

            TOTAL IN =      573961.3781              TOTAL IN =        1275.8380

          OUT:                                     OUT:
          ----                                     ----
              STO-SS =           0.0000                STO-SS =           0.0000     STORAGE                          
                 DRN =        8333.9735                   DRN =           9.3219     DRN_SYS1                         
                 RIV =      539755.1092                   RIV =        1226.8803     RIV_SYS1                         
                 RIV =       25873.9968                   RIV =          39.6358     RIV_SYS2                         
                 RCH =           0.0000                   RCH =           0.0000     RCH_MSW                          

           TOTAL OUT =      573963.0795             TOTAL OUT =        1275.8380

            IN - OUT =          -1.7014              IN - OUT =      -8.3690E-06

 PERCENT DISCREPANCY =          -0.00     PERCENT DISCREPANCY =          -0.00




         TIME SUMMARY AT END OF TIME STEP    1 IN STRESS PERIOD  304
                    SECONDS     MINUTES      HOURS       DAYS        YEARS
                    -----------------------------------------------------------
   TIME STEP LENGTH  86400.      1440.0      24.000      1.0000     2.73785E-03
 STRESS PERIOD TIME  86400.      1440.0      24.000      1.0000     2.73785E-03
         TOTAL TIME 2.62656E+07 4.37760E+05  7296.0      304.00     0.83231    


end timestep


start timestep kper="305" kstp="1" mode="normal"

 #Stressperiod Save Options

 BEGIN READING OUTPUT CONTROL FOR STRESS PERIOD 305
      ALL TIME STEPS WILL BE SAVED
      ALL TIME STEPS WILL BE SAVED

 END READING OUTPUT CONTROL FOR STRESS PERIOD 305


 PROCESSING STORAGE PERIOD DATA
 END PROCESSING STORAGE PERIOD DATA


 STRESS PERIOD 305 IS TRANSIENT


 REUSING DRNS FROM LAST STRESS PERIOD

 REUSING RIVS FROM LAST STRESS PERIOD

 REUSING RIVS FROM LAST STRESS PERIOD

 REUSING RCHS FROM LAST STRESS PERIOD
 UBDSV06 SAVING              DRN IN MODEL GWF_1            PACKAGE GWF_1           CONNECTED TO MODEL GWF_1            PACKAGE DRN_SYS1         ON UNIT   1018 AT TIME STEP      1, STRESS PERIOD    305
 UBDSV06 SAVING              RIV IN MODEL GWF_1            PACKAGE GWF_1           CONNECTED TO MODEL GWF_1            PACKAGE RIV_SYS1         ON UNIT   1018 AT TIME STEP      1, STRESS PERIOD    305
 UBDSV06 SAVING              RIV IN MODEL GWF_1            PACKAGE GWF_1           CONNECTED TO MODEL GWF_1            PACKAGE RIV_SYS2         ON UNIT   1018 AT TIME STEP      1, STRESS PERIOD    305

 HEAD WILL BE SAVED ON UNIT 1017 AT END OF TIME STEP    1, STRESS PERIOD  305


  VOLUME BUDGET FOR ENTIRE MODEL AT END OF TIME STEP    1, STRESS PERIOD 305
  ---------------------------------------------------------------------------------------------------

     CUMULATIVE VOLUME      L**3       RATES FOR THIS TIME STEP      L**3/T          PACKAGE NAME    
     ------------------                 ------------------------                     ----------------

           IN:                                      IN:
           ---                                      ---
              STO-SS =      227438.2716                STO-SS =       7.7408E-04     STORAGE                          
                 DRN =           0.0000                   DRN =           0.0000     DRN_SYS1                         
                 RIV =      347798.9445                   RIV =        1275.8372     RIV_SYS1                         
                 RIV =           0.0000                   RIV =           0.0000     RIV_SYS2                         
                 RCH =           0.0000                   RCH =           0.0000     RCH_MSW                          

            TOTAL IN =      575237.2161              TOTAL IN =        1275.8380

          OUT:                                     OUT:
          ----                                     ----
              STO-SS =           0.0000                STO-SS =           0.0000     STORAGE                          
                 DRN =        8343.2954                   DRN =           9.3219     DRN_SYS1                         
                 RIV =      540981.9895                   RIV =        1226.8803     RIV_SYS1                         
                 RIV =       25913.6326                   RIV =          39.6358     RIV_SYS2                         
                 RCH =           0.0000                   RCH =           0.0000     RCH_MSW                          

           TOTAL OUT =      575238.9175             TOTAL OUT =        1275.8380

            IN - OUT =          -1.7014              IN - OUT =      -7.9370E-06

 PERCENT DISCREPANCY =          -0.00     PERCENT DISCREPANCY =          -0.00




         TIME SUMMARY AT END OF TIME STEP    1 IN STRESS PERIOD  305
                    SECONDS     MINUTES      HOURS       DAYS        YEARS
                    -----------------------------------------------------------
   TIME STEP LENGTH  86400.      1440.0      24.000      1.0000     2.73785E-03
 STRESS PERIOD TIME  86400.      1440.0      24.000      1.0000     2.73785E-03
         TOTAL TIME 2.63520E+07 4.39200E+05  7320.0      305.00     0.83504    


end timestep


start timestep kper="306" kstp="1" mode="normal"

 #Stressperiod Save Options

 BEGIN READING OUTPUT CONTROL FOR STRESS PERIOD 306
      ALL TIME STEPS WILL BE SAVED
      ALL TIME STEPS WILL BE SAVED

 END READING OUTPUT CONTROL FOR STRESS PERIOD 306


 PROCESSING STORAGE PERIOD DATA
 END PROCESSING STORAGE PERIOD DATA


 STRESS PERIOD 306 IS TRANSIENT


 REUSING DRNS FROM LAST STRESS PERIOD

 REUSING RIVS FROM LAST STRESS PERIOD

 REUSING RIVS FROM LAST STRESS PERIOD

 REUSING RCHS FROM LAST STRESS PERIOD
 UBDSV06 SAVING              DRN IN MODEL GWF_1            PACKAGE GWF_1           CONNECTED TO MODEL GWF_1            PACKAGE DRN_SYS1         ON UNIT   1018 AT TIME STEP      1, STRESS PERIOD    306
 UBDSV06 SAVING              RIV IN MODEL GWF_1            PACKAGE GWF_1           CONNECTED TO MODEL GWF_1            PACKAGE RIV_SYS1         ON UNIT   1018 AT TIME STEP      1, STRESS PERIOD    306
 UBDSV06 SAVING              RIV IN MODEL GWF_1            PACKAGE GWF_1           CONNECTED TO MODEL GWF_1            PACKAGE RIV_SYS2         ON UNIT   1018 AT TIME STEP      1, STRESS PERIOD    306

 HEAD WILL BE SAVED ON UNIT 1017 AT END OF TIME STEP    1, STRESS PERIOD  306


  VOLUME BUDGET FOR ENTIRE MODEL AT END OF TIME STEP    1, STRESS PERIOD 306
  ---------------------------------------------------------------------------------------------------

     CUMULATIVE VOLUME      L**3       RATES FOR THIS TIME STEP      L**3/T          PACKAGE NAME    
     ------------------                 ------------------------                     ----------------

           IN:                                      IN:
           ---                                      ---
              STO-SS =      227438.2724                STO-SS =       7.3363E-04     STORAGE                          
                 DRN =           0.0000                   DRN =           0.0000     DRN_SYS1                         
                 RIV =      349074.7817                   RIV =        1275.8372     RIV_SYS1                         
                 RIV =           0.0000                   RIV =           0.0000     RIV_SYS2                         
                 RCH =           0.0000                   RCH =           0.0000     RCH_MSW                          

            TOTAL IN =      576513.0541              TOTAL IN =        1275.8380

          OUT:                                     OUT:
          ----                                     ----
              STO-SS =           0.0000                STO-SS =           0.0000     STORAGE                          
                 DRN =        8352.6173                   DRN =           9.3219     DRN_SYS1                         
                 RIV =      542208.8698                   RIV =        1226.8803     RIV_SYS1                         
                 RIV =       25953.2684                   RIV =          39.6358     RIV_SYS2                         
                 RCH =           0.0000                   RCH =           0.0000     RCH_MSW                          

           TOTAL OUT =      576514.7555             TOTAL OUT =        1275.8380

            IN - OUT =          -1.7014              IN - OUT =      -7.5276E-06

 PERCENT DISCREPANCY =          -0.00     PERCENT DISCREPANCY =          -0.00




         TIME SUMMARY AT END OF TIME STEP    1 IN STRESS PERIOD  306
                    SECONDS     MINUTES      HOURS       DAYS        YEARS
                    -----------------------------------------------------------
   TIME STEP LENGTH  86400.      1440.0      24.000      1.0000     2.73785E-03
 STRESS PERIOD TIME  86400.      1440.0      24.000      1.0000     2.73785E-03
         TOTAL TIME 2.64384E+07 4.40640E+05  7344.0      306.00     0.83778    


end timestep


start timestep kper="307" kstp="1" mode="normal"

 #Stressperiod Save Options

 BEGIN READING OUTPUT CONTROL FOR STRESS PERIOD 307
      ALL TIME STEPS WILL BE SAVED
      ALL TIME STEPS WILL BE SAVED

 END READING OUTPUT CONTROL FOR STRESS PERIOD 307


 PROCESSING STORAGE PERIOD DATA
 END PROCESSING STORAGE PERIOD DATA


 STRESS PERIOD 307 IS TRANSIENT


 REUSING DRNS FROM LAST STRESS PERIOD

 REUSING RIVS FROM LAST STRESS PERIOD

 REUSING RIVS FROM LAST STRESS PERIOD

 REUSING RCHS FROM LAST STRESS PERIOD
 UBDSV06 SAVING              DRN IN MODEL GWF_1            PACKAGE GWF_1           CONNECTED TO MODEL GWF_1            PACKAGE DRN_SYS1         ON UNIT   1018 AT TIME STEP      1, STRESS PERIOD    307
 UBDSV06 SAVING              RIV IN MODEL GWF_1            PACKAGE GWF_1           CONNECTED TO MODEL GWF_1            PACKAGE RIV_SYS1         ON UNIT   1018 AT TIME STEP      1, STRESS PERIOD    307
 UBDSV06 SAVING              RIV IN MODEL GWF_1            PACKAGE GWF_1           CONNECTED TO MODEL GWF_1            PACKAGE RIV_SYS2         ON UNIT   1018 AT TIME STEP      1, STRESS PERIOD    307

 HEAD WILL BE SAVED ON UNIT 1017 AT END OF TIME STEP    1, STRESS PERIOD  307


  VOLUME BUDGET FOR ENTIRE MODEL AT END OF TIME STEP    1, STRESS PERIOD 307
  ---------------------------------------------------------------------------------------------------

     CUMULATIVE VOLUME      L**3       RATES FOR THIS TIME STEP      L**3/T          PACKAGE NAME    
     ------------------                 ------------------------                     ----------------

           IN:                                      IN:
           ---                                      ---
              STO-SS =      227438.2731                STO-SS =       6.9529E-04     STORAGE                          
                 DRN =           0.0000                   DRN =           0.0000     DRN_SYS1                         
                 RIV =      350350.6190                   RIV =        1275.8373     RIV_SYS1                         
                 RIV =           0.0000                   RIV =           0.0000     RIV_SYS2                         
                 RCH =           0.0000                   RCH =           0.0000     RCH_MSW                          

            TOTAL IN =      577788.8920              TOTAL IN =        1275.8380

          OUT:                                     OUT:
          ----                                     ----
              STO-SS =           0.0000                STO-SS =           0.0000     STORAGE                          
                 DRN =        8361.9392                   DRN =           9.3219     DRN_SYS1                         
                 RIV =      543435.7500                   RIV =        1226.8802     RIV_SYS1                         
                 RIV =       25992.9042                   RIV =          39.6358     RIV_SYS2                         
                 RCH =           0.0000                   RCH =           0.0000     RCH_MSW                          

           TOTAL OUT =      577790.5934             TOTAL OUT =        1275.8380

            IN - OUT =          -1.7014              IN - OUT =      -7.1399E-06

 PERCENT DISCREPANCY =          -0.00     PERCENT DISCREPANCY =          -0.00




         TIME SUMMARY AT END OF TIME STEP    1 IN STRESS PERIOD  307
                    SECONDS     MINUTES      HOURS       DAYS        YEARS
                    -----------------------------------------------------------
   TIME STEP LENGTH  86400.      1440.0      24.000      1.0000     2.73785E-03
 STRESS PERIOD TIME  86400.      1440.0      24.000      1.0000     2.73785E-03
         TOTAL TIME 2.65248E+07 4.42080E+05  7368.0      307.00     0.84052    


end timestep


start timestep kper="308" kstp="1" mode="normal"

 #Stressperiod Save Options

 BEGIN READING OUTPUT CONTROL FOR STRESS PERIOD 308
      ALL TIME STEPS WILL BE SAVED
      ALL TIME STEPS WILL BE SAVED

 END READING OUTPUT CONTROL FOR STRESS PERIOD 308


 PROCESSING STORAGE PERIOD DATA
 END PROCESSING STORAGE PERIOD DATA


 STRESS PERIOD 308 IS TRANSIENT


 REUSING DRNS FROM LAST STRESS PERIOD

 REUSING RIVS FROM LAST STRESS PERIOD

 REUSING RIVS FROM LAST STRESS PERIOD

 REUSING RCHS FROM LAST STRESS PERIOD
 UBDSV06 SAVING              DRN IN MODEL GWF_1            PACKAGE GWF_1           CONNECTED TO MODEL GWF_1            PACKAGE DRN_SYS1         ON UNIT   1018 AT TIME STEP      1, STRESS PERIOD    308
 UBDSV06 SAVING              RIV IN MODEL GWF_1            PACKAGE GWF_1           CONNECTED TO MODEL GWF_1            PACKAGE RIV_SYS1         ON UNIT   1018 AT TIME STEP      1, STRESS PERIOD    308
 UBDSV06 SAVING              RIV IN MODEL GWF_1            PACKAGE GWF_1           CONNECTED TO MODEL GWF_1            PACKAGE RIV_SYS2         ON UNIT   1018 AT TIME STEP      1, STRESS PERIOD    308

 HEAD WILL BE SAVED ON UNIT 1017 AT END OF TIME STEP    1, STRESS PERIOD  308


  VOLUME BUDGET FOR ENTIRE MODEL AT END OF TIME STEP    1, STRESS PERIOD 308
  ---------------------------------------------------------------------------------------------------

     CUMULATIVE VOLUME      L**3       RATES FOR THIS TIME STEP      L**3/T          PACKAGE NAME    
     ------------------                 ------------------------                     ----------------

           IN:                                      IN:
           ---                                      ---
              STO-SS =      227438.2737                STO-SS =       6.5896E-04     STORAGE                          
                 DRN =           0.0000                   DRN =           0.0000     DRN_SYS1                         
                 RIV =      351626.4562                   RIV =        1275.8373     RIV_SYS1                         
                 RIV =           0.0000                   RIV =           0.0000     RIV_SYS2                         
                 RCH =           0.0000                   RCH =           0.0000     RCH_MSW                          

            TOTAL IN =      579064.7300              TOTAL IN =        1275.8379

          OUT:                                     OUT:
          ----                                     ----
              STO-SS =           0.0000                STO-SS =           0.0000     STORAGE                          
                 DRN =        8371.2611                   DRN =           9.3219     DRN_SYS1                         
                 RIV =      544662.6302                   RIV =        1226.8802     RIV_SYS1                         
                 RIV =       26032.5400                   RIV =          39.6358     RIV_SYS2                         
                 RCH =           0.0000                   RCH =           0.0000     RCH_MSW                          

           TOTAL OUT =      579066.4314             TOTAL OUT =        1275.8379

            IN - OUT =          -1.7014              IN - OUT =      -6.7730E-06

 PERCENT DISCREPANCY =          -0.00     PERCENT DISCREPANCY =          -0.00




         TIME SUMMARY AT END OF TIME STEP    1 IN STRESS PERIOD  308
                    SECONDS     MINUTES      HOURS       DAYS        YEARS
                    -----------------------------------------------------------
   TIME STEP LENGTH  86400.      1440.0      24.000      1.0000     2.73785E-03
 STRESS PERIOD TIME  86400.      1440.0      24.000      1.0000     2.73785E-03
         TOTAL TIME 2.66112E+07 4.43520E+05  7392.0      308.00     0.84326    


end timestep


start timestep kper="309" kstp="1" mode="normal"

 #Stressperiod Save Options

 BEGIN READING OUTPUT CONTROL FOR STRESS PERIOD 309
      ALL TIME STEPS WILL BE SAVED
      ALL TIME STEPS WILL BE SAVED

 END READING OUTPUT CONTROL FOR STRESS PERIOD 309


 PROCESSING STORAGE PERIOD DATA
 END PROCESSING STORAGE PERIOD DATA


 STRESS PERIOD 309 IS TRANSIENT


 REUSING DRNS FROM LAST STRESS PERIOD

 REUSING RIVS FROM LAST STRESS PERIOD

 REUSING RIVS FROM LAST STRESS PERIOD

 REUSING RCHS FROM LAST STRESS PERIOD
 UBDSV06 SAVING              DRN IN MODEL GWF_1            PACKAGE GWF_1           CONNECTED TO MODEL GWF_1            PACKAGE DRN_SYS1         ON UNIT   1018 AT TIME STEP      1, STRESS PERIOD    309
 UBDSV06 SAVING              RIV IN MODEL GWF_1            PACKAGE GWF_1           CONNECTED TO MODEL GWF_1            PACKAGE RIV_SYS1         ON UNIT   1018 AT TIME STEP      1, STRESS PERIOD    309
 UBDSV06 SAVING              RIV IN MODEL GWF_1            PACKAGE GWF_1           CONNECTED TO MODEL GWF_1            PACKAGE RIV_SYS2         ON UNIT   1018 AT TIME STEP      1, STRESS PERIOD    309

 HEAD WILL BE SAVED ON UNIT 1017 AT END OF TIME STEP    1, STRESS PERIOD  309


  VOLUME BUDGET FOR ENTIRE MODEL AT END OF TIME STEP    1, STRESS PERIOD 309
  ---------------------------------------------------------------------------------------------------

     CUMULATIVE VOLUME      L**3       RATES FOR THIS TIME STEP      L**3/T          PACKAGE NAME    
     ------------------                 ------------------------                     ----------------

           IN:                                      IN:
           ---                                      ---
              STO-SS =      227438.2743                STO-SS =       6.2452E-04     STORAGE                          
                 DRN =           0.0000                   DRN =           0.0000     DRN_SYS1                         
                 RIV =      352902.2935                   RIV =        1275.8373     RIV_SYS1                         
                 RIV =           0.0000                   RIV =           0.0000     RIV_SYS2                         
                 RCH =           0.0000                   RCH =           0.0000     RCH_MSW                          

            TOTAL IN =      580340.5679              TOTAL IN =        1275.8379

          OUT:                                     OUT:
          ----                                     ----
              STO-SS =           0.0000                STO-SS =           0.0000     STORAGE                          
                 DRN =        8380.5830                   DRN =           9.3219     DRN_SYS1                         
                 RIV =      545889.5104                   RIV =        1226.8802     RIV_SYS1                         
                 RIV =       26072.1759                   RIV =          39.6358     RIV_SYS2                         
                 RCH =           0.0000                   RCH =           0.0000     RCH_MSW                          

           TOTAL OUT =      580342.2693             TOTAL OUT =        1275.8379

            IN - OUT =          -1.7014              IN - OUT =      -6.4255E-06

 PERCENT DISCREPANCY =          -0.00     PERCENT DISCREPANCY =          -0.00




         TIME SUMMARY AT END OF TIME STEP    1 IN STRESS PERIOD  309
                    SECONDS     MINUTES      HOURS       DAYS        YEARS
                    -----------------------------------------------------------
   TIME STEP LENGTH  86400.      1440.0      24.000      1.0000     2.73785E-03
 STRESS PERIOD TIME  86400.      1440.0      24.000      1.0000     2.73785E-03
         TOTAL TIME 2.66976E+07 4.44960E+05  7416.0      309.00     0.84600    


end timestep


start timestep kper="310" kstp="1" mode="normal"

 #Stressperiod Save Options

 BEGIN READING OUTPUT CONTROL FOR STRESS PERIOD 310
      ALL TIME STEPS WILL BE SAVED
      ALL TIME STEPS WILL BE SAVED

 END READING OUTPUT CONTROL FOR STRESS PERIOD 310


 PROCESSING STORAGE PERIOD DATA
 END PROCESSING STORAGE PERIOD DATA


 STRESS PERIOD 310 IS TRANSIENT


 REUSING DRNS FROM LAST STRESS PERIOD

 REUSING RIVS FROM LAST STRESS PERIOD

 REUSING RIVS FROM LAST STRESS PERIOD

 REUSING RCHS FROM LAST STRESS PERIOD
 UBDSV06 SAVING              DRN IN MODEL GWF_1            PACKAGE GWF_1           CONNECTED TO MODEL GWF_1            PACKAGE DRN_SYS1         ON UNIT   1018 AT TIME STEP      1, STRESS PERIOD    310
 UBDSV06 SAVING              RIV IN MODEL GWF_1            PACKAGE GWF_1           CONNECTED TO MODEL GWF_1            PACKAGE RIV_SYS1         ON UNIT   1018 AT TIME STEP      1, STRESS PERIOD    310
 UBDSV06 SAVING              RIV IN MODEL GWF_1            PACKAGE GWF_1           CONNECTED TO MODEL GWF_1            PACKAGE RIV_SYS2         ON UNIT   1018 AT TIME STEP      1, STRESS PERIOD    310

 HEAD WILL BE SAVED ON UNIT 1017 AT END OF TIME STEP    1, STRESS PERIOD  310


  VOLUME BUDGET FOR ENTIRE MODEL AT END OF TIME STEP    1, STRESS PERIOD 310
  ---------------------------------------------------------------------------------------------------

     CUMULATIVE VOLUME      L**3       RATES FOR THIS TIME STEP      L**3/T          PACKAGE NAME    
     ------------------                 ------------------------                     ----------------

           IN:                                      IN:
           ---                                      ---
              STO-SS =      227438.2749                STO-SS =       5.9188E-04     STORAGE                          
                 DRN =           0.0000                   DRN =           0.0000     DRN_SYS1                         
                 RIV =      354178.1308                   RIV =        1275.8373     RIV_SYS1                         
                 RIV =           0.0000                   RIV =           0.0000     RIV_SYS2                         
                 RCH =           0.0000                   RCH =           0.0000     RCH_MSW                          

            TOTAL IN =      581616.4058              TOTAL IN =        1275.8379

          OUT:                                     OUT:
          ----                                     ----
              STO-SS =           0.0000                STO-SS =           0.0000     STORAGE                          
                 DRN =        8389.9049                   DRN =           9.3219     DRN_SYS1                         
                 RIV =      547116.3906                   RIV =        1226.8802     RIV_SYS1                         
                 RIV =       26111.8117                   RIV =          39.6358     RIV_SYS2                         
                 RCH =           0.0000                   RCH =           0.0000     RCH_MSW                          

           TOTAL OUT =      581618.1072             TOTAL OUT =        1275.8379

            IN - OUT =          -1.7014              IN - OUT =      -6.0965E-06

 PERCENT DISCREPANCY =          -0.00     PERCENT DISCREPANCY =          -0.00




         TIME SUMMARY AT END OF TIME STEP    1 IN STRESS PERIOD  310
                    SECONDS     MINUTES      HOURS       DAYS        YEARS
                    -----------------------------------------------------------
   TIME STEP LENGTH  86400.      1440.0      24.000      1.0000     2.73785E-03
 STRESS PERIOD TIME  86400.      1440.0      24.000      1.0000     2.73785E-03
         TOTAL TIME 2.67840E+07 4.46400E+05  7440.0      310.00     0.84873    


end timestep


start timestep kper="311" kstp="1" mode="normal"

 #Stressperiod Save Options

 BEGIN READING OUTPUT CONTROL FOR STRESS PERIOD 311
      ALL TIME STEPS WILL BE SAVED
      ALL TIME STEPS WILL BE SAVED

 END READING OUTPUT CONTROL FOR STRESS PERIOD 311


 PROCESSING STORAGE PERIOD DATA
 END PROCESSING STORAGE PERIOD DATA


 STRESS PERIOD 311 IS TRANSIENT


 REUSING DRNS FROM LAST STRESS PERIOD

 REUSING RIVS FROM LAST STRESS PERIOD

 REUSING RIVS FROM LAST STRESS PERIOD

 REUSING RCHS FROM LAST STRESS PERIOD
 UBDSV06 SAVING              DRN IN MODEL GWF_1            PACKAGE GWF_1           CONNECTED TO MODEL GWF_1            PACKAGE DRN_SYS1         ON UNIT   1018 AT TIME STEP      1, STRESS PERIOD    311
 UBDSV06 SAVING              RIV IN MODEL GWF_1            PACKAGE GWF_1           CONNECTED TO MODEL GWF_1            PACKAGE RIV_SYS1         ON UNIT   1018 AT TIME STEP      1, STRESS PERIOD    311
 UBDSV06 SAVING              RIV IN MODEL GWF_1            PACKAGE GWF_1           CONNECTED TO MODEL GWF_1            PACKAGE RIV_SYS2         ON UNIT   1018 AT TIME STEP      1, STRESS PERIOD    311

 HEAD WILL BE SAVED ON UNIT 1017 AT END OF TIME STEP    1, STRESS PERIOD  311


  VOLUME BUDGET FOR ENTIRE MODEL AT END OF TIME STEP    1, STRESS PERIOD 311
  ---------------------------------------------------------------------------------------------------

     CUMULATIVE VOLUME      L**3       RATES FOR THIS TIME STEP      L**3/T          PACKAGE NAME    
     ------------------                 ------------------------                     ----------------

           IN:                                      IN:
           ---                                      ---
              STO-SS =      227438.2755                STO-SS =       5.6095E-04     STORAGE                          
                 DRN =           0.0000                   DRN =           0.0000     DRN_SYS1                         
                 RIV =      355453.9681                   RIV =        1275.8373     RIV_SYS1                         
                 RIV =           0.0000                   RIV =           0.0000     RIV_SYS2                         
                 RCH =           0.0000                   RCH =           0.0000     RCH_MSW                          

            TOTAL IN =      582892.2436              TOTAL IN =        1275.8379

          OUT:                                     OUT:
          ----                                     ----
              STO-SS =           0.0000                STO-SS =           0.0000     STORAGE                          
                 DRN =        8399.2268                   DRN =           9.3219     DRN_SYS1                         
                 RIV =      548343.2708                   RIV =        1226.8802     RIV_SYS1                         
                 RIV =       26151.4475                   RIV =          39.6358     RIV_SYS2                         
                 RCH =           0.0000                   RCH =           0.0000     RCH_MSW                          

           TOTAL OUT =      582893.9450             TOTAL OUT =        1275.8379

            IN - OUT =          -1.7014              IN - OUT =      -5.7850E-06

 PERCENT DISCREPANCY =          -0.00     PERCENT DISCREPANCY =          -0.00




         TIME SUMMARY AT END OF TIME STEP    1 IN STRESS PERIOD  311
                    SECONDS     MINUTES      HOURS       DAYS        YEARS
                    -----------------------------------------------------------
   TIME STEP LENGTH  86400.      1440.0      24.000      1.0000     2.73785E-03
 STRESS PERIOD TIME  86400.      1440.0      24.000      1.0000     2.73785E-03
         TOTAL TIME 2.68704E+07 4.47840E+05  7464.0      311.00     0.85147    


end timestep


start timestep kper="312" kstp="1" mode="normal"

 #Stressperiod Save Options

 BEGIN READING OUTPUT CONTROL FOR STRESS PERIOD 312
      ALL TIME STEPS WILL BE SAVED
      ALL TIME STEPS WILL BE SAVED

 END READING OUTPUT CONTROL FOR STRESS PERIOD 312


 PROCESSING STORAGE PERIOD DATA
 END PROCESSING STORAGE PERIOD DATA


 STRESS PERIOD 312 IS TRANSIENT


 REUSING DRNS FROM LAST STRESS PERIOD

 REUSING RIVS FROM LAST STRESS PERIOD

 REUSING RIVS FROM LAST STRESS PERIOD

 REUSING RCHS FROM LAST STRESS PERIOD
 UBDSV06 SAVING              DRN IN MODEL GWF_1            PACKAGE GWF_1           CONNECTED TO MODEL GWF_1            PACKAGE DRN_SYS1         ON UNIT   1018 AT TIME STEP      1, STRESS PERIOD    312
 UBDSV06 SAVING              RIV IN MODEL GWF_1            PACKAGE GWF_1           CONNECTED TO MODEL GWF_1            PACKAGE RIV_SYS1         ON UNIT   1018 AT TIME STEP      1, STRESS PERIOD    312
 UBDSV06 SAVING              RIV IN MODEL GWF_1            PACKAGE GWF_1           CONNECTED TO MODEL GWF_1            PACKAGE RIV_SYS2         ON UNIT   1018 AT TIME STEP      1, STRESS PERIOD    312

 HEAD WILL BE SAVED ON UNIT 1017 AT END OF TIME STEP    1, STRESS PERIOD  312


  VOLUME BUDGET FOR ENTIRE MODEL AT END OF TIME STEP    1, STRESS PERIOD 312
  ---------------------------------------------------------------------------------------------------

     CUMULATIVE VOLUME      L**3       RATES FOR THIS TIME STEP      L**3/T          PACKAGE NAME    
     ------------------                 ------------------------                     ----------------

           IN:                                      IN:
           ---                                      ---
              STO-SS =      227438.2760                STO-SS =       5.3164E-04     STORAGE                          
                 DRN =           0.0000                   DRN =           0.0000     DRN_SYS1                         
                 RIV =      356729.8054                   RIV =        1275.8373     RIV_SYS1                         
                 RIV =           0.0000                   RIV =           0.0000     RIV_SYS2                         
                 RCH =           0.0000                   RCH =           0.0000     RCH_MSW                          

            TOTAL IN =      584168.0815              TOTAL IN =        1275.8378

          OUT:                                     OUT:
          ----                                     ----
              STO-SS =           0.0000                STO-SS =           0.0000     STORAGE                          
                 DRN =        8408.5487                   DRN =           9.3219     DRN_SYS1                         
                 RIV =      549570.1509                   RIV =        1226.8801     RIV_SYS1                         
                 RIV =       26191.0833                   RIV =          39.6358     RIV_SYS2                         
                 RCH =           0.0000                   RCH =           0.0000     RCH_MSW                          

           TOTAL OUT =      584169.7829             TOTAL OUT =        1275.8379

            IN - OUT =          -1.7014              IN - OUT =      -5.4903E-06

 PERCENT DISCREPANCY =          -0.00     PERCENT DISCREPANCY =          -0.00




         TIME SUMMARY AT END OF TIME STEP    1 IN STRESS PERIOD  312
                    SECONDS     MINUTES      HOURS       DAYS        YEARS
                    -----------------------------------------------------------
   TIME STEP LENGTH  86400.      1440.0      24.000      1.0000     2.73785E-03
 STRESS PERIOD TIME  86400.      1440.0      24.000      1.0000     2.73785E-03
         TOTAL TIME 2.69568E+07 4.49280E+05  7488.0      312.00     0.85421    


end timestep


start timestep kper="313" kstp="1" mode="normal"

 #Stressperiod Save Options

 BEGIN READING OUTPUT CONTROL FOR STRESS PERIOD 313
      ALL TIME STEPS WILL BE SAVED
      ALL TIME STEPS WILL BE SAVED

 END READING OUTPUT CONTROL FOR STRESS PERIOD 313


 PROCESSING STORAGE PERIOD DATA
 END PROCESSING STORAGE PERIOD DATA


 STRESS PERIOD 313 IS TRANSIENT


 REUSING DRNS FROM LAST STRESS PERIOD

 REUSING RIVS FROM LAST STRESS PERIOD

 REUSING RIVS FROM LAST STRESS PERIOD

 REUSING RCHS FROM LAST STRESS PERIOD
 UBDSV06 SAVING              DRN IN MODEL GWF_1            PACKAGE GWF_1           CONNECTED TO MODEL GWF_1            PACKAGE DRN_SYS1         ON UNIT   1018 AT TIME STEP      1, STRESS PERIOD    313
 UBDSV06 SAVING              RIV IN MODEL GWF_1            PACKAGE GWF_1           CONNECTED TO MODEL GWF_1            PACKAGE RIV_SYS1         ON UNIT   1018 AT TIME STEP      1, STRESS PERIOD    313
 UBDSV06 SAVING              RIV IN MODEL GWF_1            PACKAGE GWF_1           CONNECTED TO MODEL GWF_1            PACKAGE RIV_SYS2         ON UNIT   1018 AT TIME STEP      1, STRESS PERIOD    313

 HEAD WILL BE SAVED ON UNIT 1017 AT END OF TIME STEP    1, STRESS PERIOD  313


  VOLUME BUDGET FOR ENTIRE MODEL AT END OF TIME STEP    1, STRESS PERIOD 313
  ---------------------------------------------------------------------------------------------------

     CUMULATIVE VOLUME      L**3       RATES FOR THIS TIME STEP      L**3/T          PACKAGE NAME    
     ------------------                 ------------------------                     ----------------

           IN:                                      IN:
           ---                                      ---
              STO-SS =      227438.2765                STO-SS =       5.0385E-04     STORAGE                          
                 DRN =           0.0000                   DRN =           0.0000     DRN_SYS1                         
                 RIV =      358005.6428                   RIV =        1275.8373     RIV_SYS1                         
                 RIV =           0.0000                   RIV =           0.0000     RIV_SYS2                         
                 RCH =           0.0000                   RCH =           0.0000     RCH_MSW                          

            TOTAL IN =      585443.9193              TOTAL IN =        1275.8378

          OUT:                                     OUT:
          ----                                     ----
              STO-SS =           0.0000                STO-SS =           0.0000     STORAGE                          
                 DRN =        8417.8706                   DRN =           9.3219     DRN_SYS1                         
                 RIV =      550797.0310                   RIV =        1226.8801     RIV_SYS1                         
                 RIV =       26230.7191                   RIV =          39.6358     RIV_SYS2                         
                 RCH =           0.0000                   RCH =           0.0000     RCH_MSW                          

           TOTAL OUT =      585445.6207             TOTAL OUT =        1275.8378

            IN - OUT =          -1.7014              IN - OUT =      -5.2113E-06

 PERCENT DISCREPANCY =          -0.00     PERCENT DISCREPANCY =          -0.00




         TIME SUMMARY AT END OF TIME STEP    1 IN STRESS PERIOD  313
                    SECONDS     MINUTES      HOURS       DAYS        YEARS
                    -----------------------------------------------------------
   TIME STEP LENGTH  86400.      1440.0      24.000      1.0000     2.73785E-03
 STRESS PERIOD TIME  86400.      1440.0      24.000      1.0000     2.73785E-03
         TOTAL TIME 2.70432E+07 4.50720E+05  7512.0      313.00     0.85695    


end timestep


start timestep kper="314" kstp="1" mode="normal"

 #Stressperiod Save Options

 BEGIN READING OUTPUT CONTROL FOR STRESS PERIOD 314
      ALL TIME STEPS WILL BE SAVED
      ALL TIME STEPS WILL BE SAVED

 END READING OUTPUT CONTROL FOR STRESS PERIOD 314


 PROCESSING STORAGE PERIOD DATA
 END PROCESSING STORAGE PERIOD DATA


 STRESS PERIOD 314 IS TRANSIENT


 REUSING DRNS FROM LAST STRESS PERIOD

 REUSING RIVS FROM LAST STRESS PERIOD

 REUSING RIVS FROM LAST STRESS PERIOD

 REUSING RCHS FROM LAST STRESS PERIOD
 UBDSV06 SAVING              DRN IN MODEL GWF_1            PACKAGE GWF_1           CONNECTED TO MODEL GWF_1            PACKAGE DRN_SYS1         ON UNIT   1018 AT TIME STEP      1, STRESS PERIOD    314
 UBDSV06 SAVING              RIV IN MODEL GWF_1            PACKAGE GWF_1           CONNECTED TO MODEL GWF_1            PACKAGE RIV_SYS1         ON UNIT   1018 AT TIME STEP      1, STRESS PERIOD    314
 UBDSV06 SAVING              RIV IN MODEL GWF_1            PACKAGE GWF_1           CONNECTED TO MODEL GWF_1            PACKAGE RIV_SYS2         ON UNIT   1018 AT TIME STEP      1, STRESS PERIOD    314

 HEAD WILL BE SAVED ON UNIT 1017 AT END OF TIME STEP    1, STRESS PERIOD  314


  VOLUME BUDGET FOR ENTIRE MODEL AT END OF TIME STEP    1, STRESS PERIOD 314
  ---------------------------------------------------------------------------------------------------

     CUMULATIVE VOLUME      L**3       RATES FOR THIS TIME STEP      L**3/T          PACKAGE NAME    
     ------------------                 ------------------------                     ----------------

           IN:                                      IN:
           ---                                      ---
              STO-SS =      227438.2770                STO-SS =       4.7752E-04     STORAGE                          
                 DRN =           0.0000                   DRN =           0.0000     DRN_SYS1                         
                 RIV =      359281.4801                   RIV =        1275.8373     RIV_SYS1                         
                 RIV =           0.0000                   RIV =           0.0000     RIV_SYS2                         
                 RCH =           0.0000                   RCH =           0.0000     RCH_MSW                          

            TOTAL IN =      586719.7571              TOTAL IN =        1275.8378

          OUT:                                     OUT:
          ----                                     ----
              STO-SS =           0.0000                STO-SS =           0.0000     STORAGE                          
                 DRN =        8427.1925                   DRN =           9.3219     DRN_SYS1                         
                 RIV =      552023.9111                   RIV =        1226.8801     RIV_SYS1                         
                 RIV =       26270.3549                   RIV =          39.6358     RIV_SYS2                         
                 RCH =           0.0000                   RCH =           0.0000     RCH_MSW                          

           TOTAL OUT =      586721.4585             TOTAL OUT =        1275.8378

            IN - OUT =          -1.7014              IN - OUT =      -4.9473E-06

 PERCENT DISCREPANCY =          -0.00     PERCENT DISCREPANCY =          -0.00




         TIME SUMMARY AT END OF TIME STEP    1 IN STRESS PERIOD  314
                    SECONDS     MINUTES      HOURS       DAYS        YEARS
                    -----------------------------------------------------------
   TIME STEP LENGTH  86400.      1440.0      24.000      1.0000     2.73785E-03
 STRESS PERIOD TIME  86400.      1440.0      24.000      1.0000     2.73785E-03
         TOTAL TIME 2.71296E+07 4.52160E+05  7536.0      314.00     0.85969    


end timestep


start timestep kper="315" kstp="1" mode="normal"

 #Stressperiod Save Options

 BEGIN READING OUTPUT CONTROL FOR STRESS PERIOD 315
      ALL TIME STEPS WILL BE SAVED
      ALL TIME STEPS WILL BE SAVED

 END READING OUTPUT CONTROL FOR STRESS PERIOD 315


 PROCESSING STORAGE PERIOD DATA
 END PROCESSING STORAGE PERIOD DATA


 STRESS PERIOD 315 IS TRANSIENT


 REUSING DRNS FROM LAST STRESS PERIOD

 REUSING RIVS FROM LAST STRESS PERIOD

 REUSING RIVS FROM LAST STRESS PERIOD

 REUSING RCHS FROM LAST STRESS PERIOD
 UBDSV06 SAVING              DRN IN MODEL GWF_1            PACKAGE GWF_1           CONNECTED TO MODEL GWF_1            PACKAGE DRN_SYS1         ON UNIT   1018 AT TIME STEP      1, STRESS PERIOD    315
 UBDSV06 SAVING              RIV IN MODEL GWF_1            PACKAGE GWF_1           CONNECTED TO MODEL GWF_1            PACKAGE RIV_SYS1         ON UNIT   1018 AT TIME STEP      1, STRESS PERIOD    315
 UBDSV06 SAVING              RIV IN MODEL GWF_1            PACKAGE GWF_1           CONNECTED TO MODEL GWF_1            PACKAGE RIV_SYS2         ON UNIT   1018 AT TIME STEP      1, STRESS PERIOD    315

 HEAD WILL BE SAVED ON UNIT 1017 AT END OF TIME STEP    1, STRESS PERIOD  315


  VOLUME BUDGET FOR ENTIRE MODEL AT END OF TIME STEP    1, STRESS PERIOD 315
  ---------------------------------------------------------------------------------------------------

     CUMULATIVE VOLUME      L**3       RATES FOR THIS TIME STEP      L**3/T          PACKAGE NAME    
     ------------------                 ------------------------                     ----------------

           IN:                                      IN:
           ---                                      ---
              STO-SS =      227438.2775                STO-SS =       4.5256E-04     STORAGE                          
                 DRN =           0.0000                   DRN =           0.0000     DRN_SYS1                         
                 RIV =      360557.3174                   RIV =        1275.8373     RIV_SYS1                         
                 RIV =           0.0000                   RIV =           0.0000     RIV_SYS2                         
                 RCH =           0.0000                   RCH =           0.0000     RCH_MSW                          

            TOTAL IN =      587995.5949              TOTAL IN =        1275.8378

          OUT:                                     OUT:
          ----                                     ----
              STO-SS =           0.0000                STO-SS =           0.0000     STORAGE                          
                 DRN =        8436.5144                   DRN =           9.3219     DRN_SYS1                         
                 RIV =      553250.7912                   RIV =        1226.8801     RIV_SYS1                         
                 RIV =       26309.9907                   RIV =          39.6358     RIV_SYS2                         
                 RCH =           0.0000                   RCH =           0.0000     RCH_MSW                          

           TOTAL OUT =      587997.2963             TOTAL OUT =        1275.8378

            IN - OUT =          -1.7015              IN - OUT =      -4.6975E-06

 PERCENT DISCREPANCY =          -0.00     PERCENT DISCREPANCY =          -0.00




         TIME SUMMARY AT END OF TIME STEP    1 IN STRESS PERIOD  315
                    SECONDS     MINUTES      HOURS       DAYS        YEARS
                    -----------------------------------------------------------
   TIME STEP LENGTH  86400.      1440.0      24.000      1.0000     2.73785E-03
 STRESS PERIOD TIME  86400.      1440.0      24.000      1.0000     2.73785E-03
         TOTAL TIME 2.72160E+07 4.53600E+05  7560.0      315.00     0.86242    


end timestep


start timestep kper="316" kstp="1" mode="normal"

 #Stressperiod Save Options

 BEGIN READING OUTPUT CONTROL FOR STRESS PERIOD 316
      ALL TIME STEPS WILL BE SAVED
      ALL TIME STEPS WILL BE SAVED

 END READING OUTPUT CONTROL FOR STRESS PERIOD 316


 PROCESSING STORAGE PERIOD DATA
 END PROCESSING STORAGE PERIOD DATA


 STRESS PERIOD 316 IS TRANSIENT


 REUSING DRNS FROM LAST STRESS PERIOD

 REUSING RIVS FROM LAST STRESS PERIOD

 REUSING RIVS FROM LAST STRESS PERIOD

 REUSING RCHS FROM LAST STRESS PERIOD
 UBDSV06 SAVING              DRN IN MODEL GWF_1            PACKAGE GWF_1           CONNECTED TO MODEL GWF_1            PACKAGE DRN_SYS1         ON UNIT   1018 AT TIME STEP      1, STRESS PERIOD    316
 UBDSV06 SAVING              RIV IN MODEL GWF_1            PACKAGE GWF_1           CONNECTED TO MODEL GWF_1            PACKAGE RIV_SYS1         ON UNIT   1018 AT TIME STEP      1, STRESS PERIOD    316
 UBDSV06 SAVING              RIV IN MODEL GWF_1            PACKAGE GWF_1           CONNECTED TO MODEL GWF_1            PACKAGE RIV_SYS2         ON UNIT   1018 AT TIME STEP      1, STRESS PERIOD    316

 HEAD WILL BE SAVED ON UNIT 1017 AT END OF TIME STEP    1, STRESS PERIOD  316


  VOLUME BUDGET FOR ENTIRE MODEL AT END OF TIME STEP    1, STRESS PERIOD 316
  ---------------------------------------------------------------------------------------------------

     CUMULATIVE VOLUME      L**3       RATES FOR THIS TIME STEP      L**3/T          PACKAGE NAME    
     ------------------                 ------------------------                     ----------------

           IN:                                      IN:
           ---                                      ---
              STO-SS =      227438.2779                STO-SS =       4.2891E-04     STORAGE                          
                 DRN =           0.0000                   DRN =           0.0000     DRN_SYS1                         
                 RIV =      361833.1548                   RIV =        1275.8373     RIV_SYS1                         
                 RIV =           0.0000                   RIV =           0.0000     RIV_SYS2                         
                 RCH =           0.0000                   RCH =           0.0000     RCH_MSW                          

            TOTAL IN =      589271.4327              TOTAL IN =        1275.8378

          OUT:                                     OUT:
          ----                                     ----
              STO-SS =           0.0000                STO-SS =           0.0000     STORAGE                          
                 DRN =        8445.8363                   DRN =           9.3219     DRN_SYS1                         
                 RIV =      554477.6713                   RIV =        1226.8801     RIV_SYS1                         
                 RIV =       26349.6265                   RIV =          39.6358     RIV_SYS2                         
                 RCH =           0.0000                   RCH =           0.0000     RCH_MSW                          

           TOTAL OUT =      589273.1341             TOTAL OUT =        1275.8378

            IN - OUT =          -1.7015              IN - OUT =      -4.4616E-06

 PERCENT DISCREPANCY =          -0.00     PERCENT DISCREPANCY =          -0.00




         TIME SUMMARY AT END OF TIME STEP    1 IN STRESS PERIOD  316
                    SECONDS     MINUTES      HOURS       DAYS        YEARS
                    -----------------------------------------------------------
   TIME STEP LENGTH  86400.      1440.0      24.000      1.0000     2.73785E-03
 STRESS PERIOD TIME  86400.      1440.0      24.000      1.0000     2.73785E-03
         TOTAL TIME 2.73024E+07 4.55040E+05  7584.0      316.00     0.86516    


end timestep


start timestep kper="317" kstp="1" mode="normal"

 #Stressperiod Save Options

 BEGIN READING OUTPUT CONTROL FOR STRESS PERIOD 317
      ALL TIME STEPS WILL BE SAVED
      ALL TIME STEPS WILL BE SAVED

 END READING OUTPUT CONTROL FOR STRESS PERIOD 317


 PROCESSING STORAGE PERIOD DATA
 END PROCESSING STORAGE PERIOD DATA


 STRESS PERIOD 317 IS TRANSIENT


 REUSING DRNS FROM LAST STRESS PERIOD

 REUSING RIVS FROM LAST STRESS PERIOD

 REUSING RIVS FROM LAST STRESS PERIOD

 REUSING RCHS FROM LAST STRESS PERIOD
 UBDSV06 SAVING              DRN IN MODEL GWF_1            PACKAGE GWF_1           CONNECTED TO MODEL GWF_1            PACKAGE DRN_SYS1         ON UNIT   1018 AT TIME STEP      1, STRESS PERIOD    317
 UBDSV06 SAVING              RIV IN MODEL GWF_1            PACKAGE GWF_1           CONNECTED TO MODEL GWF_1            PACKAGE RIV_SYS1         ON UNIT   1018 AT TIME STEP      1, STRESS PERIOD    317
 UBDSV06 SAVING              RIV IN MODEL GWF_1            PACKAGE GWF_1           CONNECTED TO MODEL GWF_1            PACKAGE RIV_SYS2         ON UNIT   1018 AT TIME STEP      1, STRESS PERIOD    317

 HEAD WILL BE SAVED ON UNIT 1017 AT END OF TIME STEP    1, STRESS PERIOD  317


  VOLUME BUDGET FOR ENTIRE MODEL AT END OF TIME STEP    1, STRESS PERIOD 317
  ---------------------------------------------------------------------------------------------------

     CUMULATIVE VOLUME      L**3       RATES FOR THIS TIME STEP      L**3/T          PACKAGE NAME    
     ------------------                 ------------------------                     ----------------

           IN:                                      IN:
           ---                                      ---
              STO-SS =      227438.2783                STO-SS =       4.0649E-04     STORAGE                          
                 DRN =           0.0000                   DRN =           0.0000     DRN_SYS1                         
                 RIV =      363108.9921                   RIV =        1275.8374     RIV_SYS1                         
                 RIV =           0.0000                   RIV =           0.0000     RIV_SYS2                         
                 RCH =           0.0000                   RCH =           0.0000     RCH_MSW                          

            TOTAL IN =      590547.2704              TOTAL IN =        1275.8378

          OUT:                                     OUT:
          ----                                     ----
              STO-SS =           0.0000                STO-SS =           0.0000     STORAGE                          
                 DRN =        8455.1582                   DRN =           9.3219     DRN_SYS1                         
                 RIV =      555704.5514                   RIV =        1226.8801     RIV_SYS1                         
                 RIV =       26389.2623                   RIV =          39.6358     RIV_SYS2                         
                 RCH =           0.0000                   RCH =           0.0000     RCH_MSW                          

           TOTAL OUT =      590548.9719             TOTAL OUT =        1275.8378

            IN - OUT =          -1.7015              IN - OUT =      -4.2385E-06

 PERCENT DISCREPANCY =          -0.00     PERCENT DISCREPANCY =          -0.00




         TIME SUMMARY AT END OF TIME STEP    1 IN STRESS PERIOD  317
                    SECONDS     MINUTES      HOURS       DAYS        YEARS
                    -----------------------------------------------------------
   TIME STEP LENGTH  86400.      1440.0      24.000      1.0000     2.73785E-03
 STRESS PERIOD TIME  86400.      1440.0      24.000      1.0000     2.73785E-03
         TOTAL TIME 2.73888E+07 4.56480E+05  7608.0      317.00     0.86790    


end timestep


start timestep kper="318" kstp="1" mode="normal"

 #Stressperiod Save Options

 BEGIN READING OUTPUT CONTROL FOR STRESS PERIOD 318
      ALL TIME STEPS WILL BE SAVED
      ALL TIME STEPS WILL BE SAVED

 END READING OUTPUT CONTROL FOR STRESS PERIOD 318


 PROCESSING STORAGE PERIOD DATA
 END PROCESSING STORAGE PERIOD DATA


 STRESS PERIOD 318 IS TRANSIENT


 REUSING DRNS FROM LAST STRESS PERIOD

 REUSING RIVS FROM LAST STRESS PERIOD

 REUSING RIVS FROM LAST STRESS PERIOD

 REUSING RCHS FROM LAST STRESS PERIOD
 UBDSV06 SAVING              DRN IN MODEL GWF_1            PACKAGE GWF_1           CONNECTED TO MODEL GWF_1            PACKAGE DRN_SYS1         ON UNIT   1018 AT TIME STEP      1, STRESS PERIOD    318
 UBDSV06 SAVING              RIV IN MODEL GWF_1            PACKAGE GWF_1           CONNECTED TO MODEL GWF_1            PACKAGE RIV_SYS1         ON UNIT   1018 AT TIME STEP      1, STRESS PERIOD    318
 UBDSV06 SAVING              RIV IN MODEL GWF_1            PACKAGE GWF_1           CONNECTED TO MODEL GWF_1            PACKAGE RIV_SYS2         ON UNIT   1018 AT TIME STEP      1, STRESS PERIOD    318

 HEAD WILL BE SAVED ON UNIT 1017 AT END OF TIME STEP    1, STRESS PERIOD  318


  VOLUME BUDGET FOR ENTIRE MODEL AT END OF TIME STEP    1, STRESS PERIOD 318
  ---------------------------------------------------------------------------------------------------

     CUMULATIVE VOLUME      L**3       RATES FOR THIS TIME STEP      L**3/T          PACKAGE NAME    
     ------------------                 ------------------------                     ----------------

           IN:                                      IN:
           ---                                      ---
              STO-SS =      227438.2787                STO-SS =       3.8525E-04     STORAGE                          
                 DRN =           0.0000                   DRN =           0.0000     DRN_SYS1                         
                 RIV =      364384.8295                   RIV =        1275.8374     RIV_SYS1                         
                 RIV =           0.0000                   RIV =           0.0000     RIV_SYS2                         
                 RCH =           0.0000                   RCH =           0.0000     RCH_MSW                          

            TOTAL IN =      591823.1082              TOTAL IN =        1275.8377

          OUT:                                     OUT:
          ----                                     ----
              STO-SS =           0.0000                STO-SS =           0.0000     STORAGE                          
                 DRN =        8464.4801                   DRN =           9.3219     DRN_SYS1                         
                 RIV =      556931.4314                   RIV =        1226.8801     RIV_SYS1                         
                 RIV =       26428.8981                   RIV =          39.6358     RIV_SYS2                         
                 RCH =           0.0000                   RCH =           0.0000     RCH_MSW                          

           TOTAL OUT =      591824.8096             TOTAL OUT =        1275.8377

            IN - OUT =          -1.7015              IN - OUT =      -4.0272E-06

 PERCENT DISCREPANCY =          -0.00     PERCENT DISCREPANCY =          -0.00




         TIME SUMMARY AT END OF TIME STEP    1 IN STRESS PERIOD  318
                    SECONDS     MINUTES      HOURS       DAYS        YEARS
                    -----------------------------------------------------------
   TIME STEP LENGTH  86400.      1440.0      24.000      1.0000     2.73785E-03
 STRESS PERIOD TIME  86400.      1440.0      24.000      1.0000     2.73785E-03
         TOTAL TIME 2.74752E+07 4.57920E+05  7632.0      318.00     0.87064    


end timestep


start timestep kper="319" kstp="1" mode="normal"

 #Stressperiod Save Options

 BEGIN READING OUTPUT CONTROL FOR STRESS PERIOD 319
      ALL TIME STEPS WILL BE SAVED
      ALL TIME STEPS WILL BE SAVED

 END READING OUTPUT CONTROL FOR STRESS PERIOD 319


 PROCESSING STORAGE PERIOD DATA
 END PROCESSING STORAGE PERIOD DATA


 STRESS PERIOD 319 IS TRANSIENT


 REUSING DRNS FROM LAST STRESS PERIOD

 REUSING RIVS FROM LAST STRESS PERIOD

 REUSING RIVS FROM LAST STRESS PERIOD

 REUSING RCHS FROM LAST STRESS PERIOD
 UBDSV06 SAVING              DRN IN MODEL GWF_1            PACKAGE GWF_1           CONNECTED TO MODEL GWF_1            PACKAGE DRN_SYS1         ON UNIT   1018 AT TIME STEP      1, STRESS PERIOD    319
 UBDSV06 SAVING              RIV IN MODEL GWF_1            PACKAGE GWF_1           CONNECTED TO MODEL GWF_1            PACKAGE RIV_SYS1         ON UNIT   1018 AT TIME STEP      1, STRESS PERIOD    319
 UBDSV06 SAVING              RIV IN MODEL GWF_1            PACKAGE GWF_1           CONNECTED TO MODEL GWF_1            PACKAGE RIV_SYS2         ON UNIT   1018 AT TIME STEP      1, STRESS PERIOD    319

 HEAD WILL BE SAVED ON UNIT 1017 AT END OF TIME STEP    1, STRESS PERIOD  319


  VOLUME BUDGET FOR ENTIRE MODEL AT END OF TIME STEP    1, STRESS PERIOD 319
  ---------------------------------------------------------------------------------------------------

     CUMULATIVE VOLUME      L**3       RATES FOR THIS TIME STEP      L**3/T          PACKAGE NAME    
     ------------------                 ------------------------                     ----------------

           IN:                                      IN:
           ---                                      ---
              STO-SS =      227438.2790                STO-SS =       3.6511E-04     STORAGE                          
                 DRN =           0.0000                   DRN =           0.0000     DRN_SYS1                         
                 RIV =      365660.6669                   RIV =        1275.8374     RIV_SYS1                         
                 RIV =           0.0000                   RIV =           0.0000     RIV_SYS2                         
                 RCH =           0.0000                   RCH =           0.0000     RCH_MSW                          

            TOTAL IN =      593098.9459              TOTAL IN =        1275.8377

          OUT:                                     OUT:
          ----                                     ----
              STO-SS =           0.0000                STO-SS =           0.0000     STORAGE                          
                 DRN =        8473.8020                   DRN =           9.3219     DRN_SYS1                         
                 RIV =      558158.3114                   RIV =        1226.8800     RIV_SYS1                         
                 RIV =       26468.5339                   RIV =          39.6358     RIV_SYS2                         
                 RCH =           0.0000                   RCH =           0.0000     RCH_MSW                          

           TOTAL OUT =      593100.6474             TOTAL OUT =        1275.8377

            IN - OUT =          -1.7015              IN - OUT =      -3.8276E-06

 PERCENT DISCREPANCY =          -0.00     PERCENT DISCREPANCY =          -0.00




         TIME SUMMARY AT END OF TIME STEP    1 IN STRESS PERIOD  319
                    SECONDS     MINUTES      HOURS       DAYS        YEARS
                    -----------------------------------------------------------
   TIME STEP LENGTH  86400.      1440.0      24.000      1.0000     2.73785E-03
 STRESS PERIOD TIME  86400.      1440.0      24.000      1.0000     2.73785E-03
         TOTAL TIME 2.75616E+07 4.59360E+05  7656.0      319.00     0.87337    


end timestep


start timestep kper="320" kstp="1" mode="normal"

 #Stressperiod Save Options

 BEGIN READING OUTPUT CONTROL FOR STRESS PERIOD 320
      ALL TIME STEPS WILL BE SAVED
      ALL TIME STEPS WILL BE SAVED

 END READING OUTPUT CONTROL FOR STRESS PERIOD 320


 PROCESSING STORAGE PERIOD DATA
 END PROCESSING STORAGE PERIOD DATA


 STRESS PERIOD 320 IS TRANSIENT


 REUSING DRNS FROM LAST STRESS PERIOD

 REUSING RIVS FROM LAST STRESS PERIOD

 REUSING RIVS FROM LAST STRESS PERIOD

 REUSING RCHS FROM LAST STRESS PERIOD
 UBDSV06 SAVING              DRN IN MODEL GWF_1            PACKAGE GWF_1           CONNECTED TO MODEL GWF_1            PACKAGE DRN_SYS1         ON UNIT   1018 AT TIME STEP      1, STRESS PERIOD    320
 UBDSV06 SAVING              RIV IN MODEL GWF_1            PACKAGE GWF_1           CONNECTED TO MODEL GWF_1            PACKAGE RIV_SYS1         ON UNIT   1018 AT TIME STEP      1, STRESS PERIOD    320
 UBDSV06 SAVING              RIV IN MODEL GWF_1            PACKAGE GWF_1           CONNECTED TO MODEL GWF_1            PACKAGE RIV_SYS2         ON UNIT   1018 AT TIME STEP      1, STRESS PERIOD    320

 HEAD WILL BE SAVED ON UNIT 1017 AT END OF TIME STEP    1, STRESS PERIOD  320


  VOLUME BUDGET FOR ENTIRE MODEL AT END OF TIME STEP    1, STRESS PERIOD 320
  ---------------------------------------------------------------------------------------------------

     CUMULATIVE VOLUME      L**3       RATES FOR THIS TIME STEP      L**3/T          PACKAGE NAME    
     ------------------                 ------------------------                     ----------------

           IN:                                      IN:
           ---                                      ---
              STO-SS =      227438.2794                STO-SS =       3.4603E-04     STORAGE                          
                 DRN =           0.0000                   DRN =           0.0000     DRN_SYS1                         
                 RIV =      366936.5042                   RIV =        1275.8374     RIV_SYS1                         
                 RIV =           0.0000                   RIV =           0.0000     RIV_SYS2                         
                 RCH =           0.0000                   RCH =           0.0000     RCH_MSW                          

            TOTAL IN =      594374.7836              TOTAL IN =        1275.8377

          OUT:                                     OUT:
          ----                                     ----
              STO-SS =           0.0000                STO-SS =           0.0000     STORAGE                          
                 DRN =        8483.1239                   DRN =           9.3219     DRN_SYS1                         
                 RIV =      559385.1915                   RIV =        1226.8800     RIV_SYS1                         
                 RIV =       26508.1697                   RIV =          39.6358     RIV_SYS2                         
                 RCH =           0.0000                   RCH =           0.0000     RCH_MSW                          

           TOTAL OUT =      594376.4851             TOTAL OUT =        1275.8377

            IN - OUT =          -1.7015              IN - OUT =      -3.6393E-06

 PERCENT DISCREPANCY =          -0.00     PERCENT DISCREPANCY =          -0.00




         TIME SUMMARY AT END OF TIME STEP    1 IN STRESS PERIOD  320
                    SECONDS     MINUTES      HOURS       DAYS        YEARS
                    -----------------------------------------------------------
   TIME STEP LENGTH  86400.      1440.0      24.000      1.0000     2.73785E-03
 STRESS PERIOD TIME  86400.      1440.0      24.000      1.0000     2.73785E-03
         TOTAL TIME 2.76480E+07 4.60800E+05  7680.0      320.00     0.87611    


end timestep


start timestep kper="321" kstp="1" mode="normal"

 #Stressperiod Save Options

 BEGIN READING OUTPUT CONTROL FOR STRESS PERIOD 321
      ALL TIME STEPS WILL BE SAVED
      ALL TIME STEPS WILL BE SAVED

 END READING OUTPUT CONTROL FOR STRESS PERIOD 321


 PROCESSING STORAGE PERIOD DATA
 END PROCESSING STORAGE PERIOD DATA


 STRESS PERIOD 321 IS TRANSIENT


 REUSING DRNS FROM LAST STRESS PERIOD

 REUSING RIVS FROM LAST STRESS PERIOD

 REUSING RIVS FROM LAST STRESS PERIOD

 REUSING RCHS FROM LAST STRESS PERIOD
 UBDSV06 SAVING              DRN IN MODEL GWF_1            PACKAGE GWF_1           CONNECTED TO MODEL GWF_1            PACKAGE DRN_SYS1         ON UNIT   1018 AT TIME STEP      1, STRESS PERIOD    321
 UBDSV06 SAVING              RIV IN MODEL GWF_1            PACKAGE GWF_1           CONNECTED TO MODEL GWF_1            PACKAGE RIV_SYS1         ON UNIT   1018 AT TIME STEP      1, STRESS PERIOD    321
 UBDSV06 SAVING              RIV IN MODEL GWF_1            PACKAGE GWF_1           CONNECTED TO MODEL GWF_1            PACKAGE RIV_SYS2         ON UNIT   1018 AT TIME STEP      1, STRESS PERIOD    321

 HEAD WILL BE SAVED ON UNIT 1017 AT END OF TIME STEP    1, STRESS PERIOD  321


  VOLUME BUDGET FOR ENTIRE MODEL AT END OF TIME STEP    1, STRESS PERIOD 321
  ---------------------------------------------------------------------------------------------------

     CUMULATIVE VOLUME      L**3       RATES FOR THIS TIME STEP      L**3/T          PACKAGE NAME    
     ------------------                 ------------------------                     ----------------

           IN:                                      IN:
           ---                                      ---
              STO-SS =      227438.2797                STO-SS =       3.2794E-04     STORAGE                          
                 DRN =           0.0000                   DRN =           0.0000     DRN_SYS1                         
                 RIV =      368212.3416                   RIV =        1275.8374     RIV_SYS1                         
                 RIV =           0.0000                   RIV =           0.0000     RIV_SYS2                         
                 RCH =           0.0000                   RCH =           0.0000     RCH_MSW                          

            TOTAL IN =      595650.6213              TOTAL IN =        1275.8377

          OUT:                                     OUT:
          ----                                     ----
              STO-SS =           0.0000                STO-SS =           0.0000     STORAGE                          
                 DRN =        8492.4458                   DRN =           9.3219     DRN_SYS1                         
                 RIV =      560612.0715                   RIV =        1226.8800     RIV_SYS1                         
                 RIV =       26547.8055                   RIV =          39.6358     RIV_SYS2                         
                 RCH =           0.0000                   RCH =           0.0000     RCH_MSW                          

           TOTAL OUT =      595652.3228             TOTAL OUT =        1275.8377

            IN - OUT =          -1.7015              IN - OUT =      -3.4612E-06

 PERCENT DISCREPANCY =          -0.00     PERCENT DISCREPANCY =          -0.00




         TIME SUMMARY AT END OF TIME STEP    1 IN STRESS PERIOD  321
                    SECONDS     MINUTES      HOURS       DAYS        YEARS
                    -----------------------------------------------------------
   TIME STEP LENGTH  86400.      1440.0      24.000      1.0000     2.73785E-03
 STRESS PERIOD TIME  86400.      1440.0      24.000      1.0000     2.73785E-03
         TOTAL TIME 2.77344E+07 4.62240E+05  7704.0      321.00     0.87885    


end timestep


start timestep kper="322" kstp="1" mode="normal"

 #Stressperiod Save Options

 BEGIN READING OUTPUT CONTROL FOR STRESS PERIOD 322
      ALL TIME STEPS WILL BE SAVED
      ALL TIME STEPS WILL BE SAVED

 END READING OUTPUT CONTROL FOR STRESS PERIOD 322


 PROCESSING STORAGE PERIOD DATA
 END PROCESSING STORAGE PERIOD DATA


 STRESS PERIOD 322 IS TRANSIENT


 REUSING DRNS FROM LAST STRESS PERIOD

 REUSING RIVS FROM LAST STRESS PERIOD

 REUSING RIVS FROM LAST STRESS PERIOD

 REUSING RCHS FROM LAST STRESS PERIOD
 UBDSV06 SAVING              DRN IN MODEL GWF_1            PACKAGE GWF_1           CONNECTED TO MODEL GWF_1            PACKAGE DRN_SYS1         ON UNIT   1018 AT TIME STEP      1, STRESS PERIOD    322
 UBDSV06 SAVING              RIV IN MODEL GWF_1            PACKAGE GWF_1           CONNECTED TO MODEL GWF_1            PACKAGE RIV_SYS1         ON UNIT   1018 AT TIME STEP      1, STRESS PERIOD    322
 UBDSV06 SAVING              RIV IN MODEL GWF_1            PACKAGE GWF_1           CONNECTED TO MODEL GWF_1            PACKAGE RIV_SYS2         ON UNIT   1018 AT TIME STEP      1, STRESS PERIOD    322

 HEAD WILL BE SAVED ON UNIT 1017 AT END OF TIME STEP    1, STRESS PERIOD  322


  VOLUME BUDGET FOR ENTIRE MODEL AT END OF TIME STEP    1, STRESS PERIOD 322
  ---------------------------------------------------------------------------------------------------

     CUMULATIVE VOLUME      L**3       RATES FOR THIS TIME STEP      L**3/T          PACKAGE NAME    
     ------------------                 ------------------------                     ----------------

           IN:                                      IN:
           ---                                      ---
              STO-SS =      227438.2800                STO-SS =       3.1080E-04     STORAGE                          
                 DRN =           0.0000                   DRN =           0.0000     DRN_SYS1                         
                 RIV =      369488.1790                   RIV =        1275.8374     RIV_SYS1                         
                 RIV =           0.0000                   RIV =           0.0000     RIV_SYS2                         
                 RCH =           0.0000                   RCH =           0.0000     RCH_MSW                          

            TOTAL IN =      596926.4590              TOTAL IN =        1275.8377

          OUT:                                     OUT:
          ----                                     ----
              STO-SS =           0.0000                STO-SS =           0.0000     STORAGE                          
                 DRN =        8501.7677                   DRN =           9.3219     DRN_SYS1                         
                 RIV =      561838.9515                   RIV =        1226.8800     RIV_SYS1                         
                 RIV =       26587.4413                   RIV =          39.6358     RIV_SYS2                         
                 RCH =           0.0000                   RCH =           0.0000     RCH_MSW                          

           TOTAL OUT =      596928.1605             TOTAL OUT =        1275.8377

            IN - OUT =          -1.7015              IN - OUT =      -3.2934E-06

 PERCENT DISCREPANCY =          -0.00     PERCENT DISCREPANCY =          -0.00




         TIME SUMMARY AT END OF TIME STEP    1 IN STRESS PERIOD  322
                    SECONDS     MINUTES      HOURS       DAYS        YEARS
                    -----------------------------------------------------------
   TIME STEP LENGTH  86400.      1440.0      24.000      1.0000     2.73785E-03
 STRESS PERIOD TIME  86400.      1440.0      24.000      1.0000     2.73785E-03
         TOTAL TIME 2.78208E+07 4.63680E+05  7728.0      322.00     0.88159    


end timestep


start timestep kper="323" kstp="1" mode="normal"

 #Stressperiod Save Options

 BEGIN READING OUTPUT CONTROL FOR STRESS PERIOD 323
      ALL TIME STEPS WILL BE SAVED
      ALL TIME STEPS WILL BE SAVED

 END READING OUTPUT CONTROL FOR STRESS PERIOD 323


 PROCESSING STORAGE PERIOD DATA
 END PROCESSING STORAGE PERIOD DATA


 STRESS PERIOD 323 IS TRANSIENT


 REUSING DRNS FROM LAST STRESS PERIOD

 REUSING RIVS FROM LAST STRESS PERIOD

 REUSING RIVS FROM LAST STRESS PERIOD

 REUSING RCHS FROM LAST STRESS PERIOD
 UBDSV06 SAVING              DRN IN MODEL GWF_1            PACKAGE GWF_1           CONNECTED TO MODEL GWF_1            PACKAGE DRN_SYS1         ON UNIT   1018 AT TIME STEP      1, STRESS PERIOD    323
 UBDSV06 SAVING              RIV IN MODEL GWF_1            PACKAGE GWF_1           CONNECTED TO MODEL GWF_1            PACKAGE RIV_SYS1         ON UNIT   1018 AT TIME STEP      1, STRESS PERIOD    323
 UBDSV06 SAVING              RIV IN MODEL GWF_1            PACKAGE GWF_1           CONNECTED TO MODEL GWF_1            PACKAGE RIV_SYS2         ON UNIT   1018 AT TIME STEP      1, STRESS PERIOD    323

 HEAD WILL BE SAVED ON UNIT 1017 AT END OF TIME STEP    1, STRESS PERIOD  323


  VOLUME BUDGET FOR ENTIRE MODEL AT END OF TIME STEP    1, STRESS PERIOD 323
  ---------------------------------------------------------------------------------------------------

     CUMULATIVE VOLUME      L**3       RATES FOR THIS TIME STEP      L**3/T          PACKAGE NAME    
     ------------------                 ------------------------                     ----------------

           IN:                                      IN:
           ---                                      ---
              STO-SS =      227438.2803                STO-SS =       2.9455E-04     STORAGE                          
                 DRN =           0.0000                   DRN =           0.0000     DRN_SYS1                         
                 RIV =      370764.0164                   RIV =        1275.8374     RIV_SYS1                         
                 RIV =           0.0000                   RIV =           0.0000     RIV_SYS2                         
                 RCH =           0.0000                   RCH =           0.0000     RCH_MSW                          

            TOTAL IN =      598202.2967              TOTAL IN =        1275.8377

          OUT:                                     OUT:
          ----                                     ----
              STO-SS =           0.0000                STO-SS =           0.0000     STORAGE                          
                 DRN =        8511.0896                   DRN =           9.3219     DRN_SYS1                         
                 RIV =      563065.8315                   RIV =        1226.8800     RIV_SYS1                         
                 RIV =       26627.0771                   RIV =          39.6358     RIV_SYS2                         
                 RCH =           0.0000                   RCH =           0.0000     RCH_MSW                          

           TOTAL OUT =      598203.9982             TOTAL OUT =        1275.8377

            IN - OUT =          -1.7015              IN - OUT =      -3.1350E-06

 PERCENT DISCREPANCY =          -0.00     PERCENT DISCREPANCY =          -0.00




         TIME SUMMARY AT END OF TIME STEP    1 IN STRESS PERIOD  323
                    SECONDS     MINUTES      HOURS       DAYS        YEARS
                    -----------------------------------------------------------
   TIME STEP LENGTH  86400.      1440.0      24.000      1.0000     2.73785E-03
 STRESS PERIOD TIME  86400.      1440.0      24.000      1.0000     2.73785E-03
         TOTAL TIME 2.79072E+07 4.65120E+05  7752.0      323.00     0.88433    


end timestep


start timestep kper="324" kstp="1" mode="normal"

 #Stressperiod Save Options

 BEGIN READING OUTPUT CONTROL FOR STRESS PERIOD 324
      ALL TIME STEPS WILL BE SAVED
      ALL TIME STEPS WILL BE SAVED

 END READING OUTPUT CONTROL FOR STRESS PERIOD 324


 PROCESSING STORAGE PERIOD DATA
 END PROCESSING STORAGE PERIOD DATA


 STRESS PERIOD 324 IS TRANSIENT


 REUSING DRNS FROM LAST STRESS PERIOD

 REUSING RIVS FROM LAST STRESS PERIOD

 REUSING RIVS FROM LAST STRESS PERIOD

 REUSING RCHS FROM LAST STRESS PERIOD
 UBDSV06 SAVING              DRN IN MODEL GWF_1            PACKAGE GWF_1           CONNECTED TO MODEL GWF_1            PACKAGE DRN_SYS1         ON UNIT   1018 AT TIME STEP      1, STRESS PERIOD    324
 UBDSV06 SAVING              RIV IN MODEL GWF_1            PACKAGE GWF_1           CONNECTED TO MODEL GWF_1            PACKAGE RIV_SYS1         ON UNIT   1018 AT TIME STEP      1, STRESS PERIOD    324
 UBDSV06 SAVING              RIV IN MODEL GWF_1            PACKAGE GWF_1           CONNECTED TO MODEL GWF_1            PACKAGE RIV_SYS2         ON UNIT   1018 AT TIME STEP      1, STRESS PERIOD    324

 HEAD WILL BE SAVED ON UNIT 1017 AT END OF TIME STEP    1, STRESS PERIOD  324


  VOLUME BUDGET FOR ENTIRE MODEL AT END OF TIME STEP    1, STRESS PERIOD 324
  ---------------------------------------------------------------------------------------------------

     CUMULATIVE VOLUME      L**3       RATES FOR THIS TIME STEP      L**3/T          PACKAGE NAME    
     ------------------                 ------------------------                     ----------------

           IN:                                      IN:
           ---                                      ---
              STO-SS =      227438.2806                STO-SS =       2.7915E-04     STORAGE                          
                 DRN =           0.0000                   DRN =           0.0000     DRN_SYS1                         
                 RIV =      372039.8538                   RIV =        1275.8374     RIV_SYS1                         
                 RIV =           0.0000                   RIV =           0.0000     RIV_SYS2                         
                 RCH =           0.0000                   RCH =           0.0000     RCH_MSW                          

            TOTAL IN =      599478.1344              TOTAL IN =        1275.8377

          OUT:                                     OUT:
          ----                                     ----
              STO-SS =           0.0000                STO-SS =           0.0000     STORAGE                          
                 DRN =        8520.4115                   DRN =           9.3219     DRN_SYS1                         
                 RIV =      564292.7115                   RIV =        1226.8800     RIV_SYS1                         
                 RIV =       26666.7129                   RIV =          39.6358     RIV_SYS2                         
                 RCH =           0.0000                   RCH =           0.0000     RCH_MSW                          

           TOTAL OUT =      599479.8359             TOTAL OUT =        1275.8377

            IN - OUT =          -1.7015              IN - OUT =      -2.9854E-06

 PERCENT DISCREPANCY =          -0.00     PERCENT DISCREPANCY =          -0.00




         TIME SUMMARY AT END OF TIME STEP    1 IN STRESS PERIOD  324
                    SECONDS     MINUTES      HOURS       DAYS        YEARS
                    -----------------------------------------------------------
   TIME STEP LENGTH  86400.      1440.0      24.000      1.0000     2.73785E-03
 STRESS PERIOD TIME  86400.      1440.0      24.000      1.0000     2.73785E-03
         TOTAL TIME 2.79936E+07 4.66560E+05  7776.0      324.00     0.88706    


end timestep


start timestep kper="325" kstp="1" mode="normal"

 #Stressperiod Save Options

 BEGIN READING OUTPUT CONTROL FOR STRESS PERIOD 325
      ALL TIME STEPS WILL BE SAVED
      ALL TIME STEPS WILL BE SAVED

 END READING OUTPUT CONTROL FOR STRESS PERIOD 325


 PROCESSING STORAGE PERIOD DATA
 END PROCESSING STORAGE PERIOD DATA


 STRESS PERIOD 325 IS TRANSIENT


 REUSING DRNS FROM LAST STRESS PERIOD

 REUSING RIVS FROM LAST STRESS PERIOD

 REUSING RIVS FROM LAST STRESS PERIOD

 REUSING RCHS FROM LAST STRESS PERIOD
 UBDSV06 SAVING              DRN IN MODEL GWF_1            PACKAGE GWF_1           CONNECTED TO MODEL GWF_1            PACKAGE DRN_SYS1         ON UNIT   1018 AT TIME STEP      1, STRESS PERIOD    325
 UBDSV06 SAVING              RIV IN MODEL GWF_1            PACKAGE GWF_1           CONNECTED TO MODEL GWF_1            PACKAGE RIV_SYS1         ON UNIT   1018 AT TIME STEP      1, STRESS PERIOD    325
 UBDSV06 SAVING              RIV IN MODEL GWF_1            PACKAGE GWF_1           CONNECTED TO MODEL GWF_1            PACKAGE RIV_SYS2         ON UNIT   1018 AT TIME STEP      1, STRESS PERIOD    325

 HEAD WILL BE SAVED ON UNIT 1017 AT END OF TIME STEP    1, STRESS PERIOD  325


  VOLUME BUDGET FOR ENTIRE MODEL AT END OF TIME STEP    1, STRESS PERIOD 325
  ---------------------------------------------------------------------------------------------------

     CUMULATIVE VOLUME      L**3       RATES FOR THIS TIME STEP      L**3/T          PACKAGE NAME    
     ------------------                 ------------------------                     ----------------

           IN:                                      IN:
           ---                                      ---
              STO-SS =      227438.2809                STO-SS =       2.6456E-04     STORAGE                          
                 DRN =           0.0000                   DRN =           0.0000     DRN_SYS1                         
                 RIV =      373315.6912                   RIV =        1275.8374     RIV_SYS1                         
                 RIV =           0.0000                   RIV =           0.0000     RIV_SYS2                         
                 RCH =           0.0000                   RCH =           0.0000     RCH_MSW                          

            TOTAL IN =      600753.9720              TOTAL IN =        1275.8377

          OUT:                                     OUT:
          ----                                     ----
              STO-SS =           0.0000                STO-SS =           0.0000     STORAGE                          
                 DRN =        8529.7334                   DRN =           9.3219     DRN_SYS1                         
                 RIV =      565519.5915                   RIV =        1226.8800     RIV_SYS1                         
                 RIV =       26706.3487                   RIV =          39.6358     RIV_SYS2                         
                 RCH =           0.0000                   RCH =           0.0000     RCH_MSW                          

           TOTAL OUT =      600755.6735             TOTAL OUT =        1275.8377

            IN - OUT =          -1.7015              IN - OUT =      -2.8445E-06

 PERCENT DISCREPANCY =          -0.00     PERCENT DISCREPANCY =          -0.00




         TIME SUMMARY AT END OF TIME STEP    1 IN STRESS PERIOD  325
                    SECONDS     MINUTES      HOURS       DAYS        YEARS
                    -----------------------------------------------------------
   TIME STEP LENGTH  86400.      1440.0      24.000      1.0000     2.73785E-03
 STRESS PERIOD TIME  86400.      1440.0      24.000      1.0000     2.73785E-03
         TOTAL TIME 2.80800E+07 4.68000E+05  7800.0      325.00     0.88980    


end timestep


start timestep kper="326" kstp="1" mode="normal"

 #Stressperiod Save Options

 BEGIN READING OUTPUT CONTROL FOR STRESS PERIOD 326
      ALL TIME STEPS WILL BE SAVED
      ALL TIME STEPS WILL BE SAVED

 END READING OUTPUT CONTROL FOR STRESS PERIOD 326


 PROCESSING STORAGE PERIOD DATA
 END PROCESSING STORAGE PERIOD DATA


 STRESS PERIOD 326 IS TRANSIENT


 REUSING DRNS FROM LAST STRESS PERIOD

 REUSING RIVS FROM LAST STRESS PERIOD

 REUSING RIVS FROM LAST STRESS PERIOD

 REUSING RCHS FROM LAST STRESS PERIOD
 UBDSV06 SAVING              DRN IN MODEL GWF_1            PACKAGE GWF_1           CONNECTED TO MODEL GWF_1            PACKAGE DRN_SYS1         ON UNIT   1018 AT TIME STEP      1, STRESS PERIOD    326
 UBDSV06 SAVING              RIV IN MODEL GWF_1            PACKAGE GWF_1           CONNECTED TO MODEL GWF_1            PACKAGE RIV_SYS1         ON UNIT   1018 AT TIME STEP      1, STRESS PERIOD    326
 UBDSV06 SAVING              RIV IN MODEL GWF_1            PACKAGE GWF_1           CONNECTED TO MODEL GWF_1            PACKAGE RIV_SYS2         ON UNIT   1018 AT TIME STEP      1, STRESS PERIOD    326

 HEAD WILL BE SAVED ON UNIT 1017 AT END OF TIME STEP    1, STRESS PERIOD  326


  VOLUME BUDGET FOR ENTIRE MODEL AT END OF TIME STEP    1, STRESS PERIOD 326
  ---------------------------------------------------------------------------------------------------

     CUMULATIVE VOLUME      L**3       RATES FOR THIS TIME STEP      L**3/T          PACKAGE NAME    
     ------------------                 ------------------------                     ----------------

           IN:                                      IN:
           ---                                      ---
              STO-SS =      227438.2811                STO-SS =       2.5073E-04     STORAGE                          
                 DRN =           0.0000                   DRN =           0.0000     DRN_SYS1                         
                 RIV =      374591.5286                   RIV =        1275.8374     RIV_SYS1                         
                 RIV =           0.0000                   RIV =           0.0000     RIV_SYS2                         
                 RCH =           0.0000                   RCH =           0.0000     RCH_MSW                          

            TOTAL IN =      602029.8097              TOTAL IN =        1275.8377

          OUT:                                     OUT:
          ----                                     ----
              STO-SS =           0.0000                STO-SS =           0.0000     STORAGE                          
                 DRN =        8539.0553                   DRN =           9.3219     DRN_SYS1                         
                 RIV =      566746.4714                   RIV =        1226.8800     RIV_SYS1                         
                 RIV =       26745.9845                   RIV =          39.6358     RIV_SYS2                         
                 RCH =           0.0000                   RCH =           0.0000     RCH_MSW                          

           TOTAL OUT =      602031.5112             TOTAL OUT =        1275.8377

            IN - OUT =          -1.7015              IN - OUT =      -2.7118E-06

 PERCENT DISCREPANCY =          -0.00     PERCENT DISCREPANCY =          -0.00




         TIME SUMMARY AT END OF TIME STEP    1 IN STRESS PERIOD  326
                    SECONDS     MINUTES      HOURS       DAYS        YEARS
                    -----------------------------------------------------------
   TIME STEP LENGTH  86400.      1440.0      24.000      1.0000     2.73785E-03
 STRESS PERIOD TIME  86400.      1440.0      24.000      1.0000     2.73785E-03
         TOTAL TIME 2.81664E+07 4.69440E+05  7824.0      326.00     0.89254    


end timestep


start timestep kper="327" kstp="1" mode="normal"

 #Stressperiod Save Options

 BEGIN READING OUTPUT CONTROL FOR STRESS PERIOD 327
      ALL TIME STEPS WILL BE SAVED
      ALL TIME STEPS WILL BE SAVED

 END READING OUTPUT CONTROL FOR STRESS PERIOD 327


 PROCESSING STORAGE PERIOD DATA
 END PROCESSING STORAGE PERIOD DATA


 STRESS PERIOD 327 IS TRANSIENT


 REUSING DRNS FROM LAST STRESS PERIOD

 REUSING RIVS FROM LAST STRESS PERIOD

 REUSING RIVS FROM LAST STRESS PERIOD

 REUSING RCHS FROM LAST STRESS PERIOD
 UBDSV06 SAVING              DRN IN MODEL GWF_1            PACKAGE GWF_1           CONNECTED TO MODEL GWF_1            PACKAGE DRN_SYS1         ON UNIT   1018 AT TIME STEP      1, STRESS PERIOD    327
 UBDSV06 SAVING              RIV IN MODEL GWF_1            PACKAGE GWF_1           CONNECTED TO MODEL GWF_1            PACKAGE RIV_SYS1         ON UNIT   1018 AT TIME STEP      1, STRESS PERIOD    327
 UBDSV06 SAVING              RIV IN MODEL GWF_1            PACKAGE GWF_1           CONNECTED TO MODEL GWF_1            PACKAGE RIV_SYS2         ON UNIT   1018 AT TIME STEP      1, STRESS PERIOD    327

 HEAD WILL BE SAVED ON UNIT 1017 AT END OF TIME STEP    1, STRESS PERIOD  327


  VOLUME BUDGET FOR ENTIRE MODEL AT END OF TIME STEP    1, STRESS PERIOD 327
  ---------------------------------------------------------------------------------------------------

     CUMULATIVE VOLUME      L**3       RATES FOR THIS TIME STEP      L**3/T          PACKAGE NAME    
     ------------------                 ------------------------                     ----------------

           IN:                                      IN:
           ---                                      ---
              STO-SS =      227438.2814                STO-SS =       2.3762E-04     STORAGE                          
                 DRN =           0.0000                   DRN =           0.0000     DRN_SYS1                         
                 RIV =      375867.3660                   RIV =        1275.8374     RIV_SYS1                         
                 RIV =           0.0000                   RIV =           0.0000     RIV_SYS2                         
                 RCH =           0.0000                   RCH =           0.0000     RCH_MSW                          

            TOTAL IN =      603305.6473              TOTAL IN =        1275.8376

          OUT:                                     OUT:
          ----                                     ----
              STO-SS =           0.0000                STO-SS =           0.0000     STORAGE                          
                 DRN =        8548.3772                   DRN =           9.3219     DRN_SYS1                         
                 RIV =      567973.3514                   RIV =        1226.8800     RIV_SYS1                         
                 RIV =       26785.6202                   RIV =          39.6358     RIV_SYS2                         
                 RCH =           0.0000                   RCH =           0.0000     RCH_MSW                          

           TOTAL OUT =      603307.3488             TOTAL OUT =        1275.8376

            IN - OUT =          -1.7015              IN - OUT =      -2.5870E-06

 PERCENT DISCREPANCY =          -0.00     PERCENT DISCREPANCY =          -0.00




         TIME SUMMARY AT END OF TIME STEP    1 IN STRESS PERIOD  327
                    SECONDS     MINUTES      HOURS       DAYS        YEARS
                    -----------------------------------------------------------
   TIME STEP LENGTH  86400.      1440.0      24.000      1.0000     2.73785E-03
 STRESS PERIOD TIME  86400.      1440.0      24.000      1.0000     2.73785E-03
         TOTAL TIME 2.82528E+07 4.70880E+05  7848.0      327.00     0.89528    


end timestep


start timestep kper="328" kstp="1" mode="normal"

 #Stressperiod Save Options

 BEGIN READING OUTPUT CONTROL FOR STRESS PERIOD 328
      ALL TIME STEPS WILL BE SAVED
      ALL TIME STEPS WILL BE SAVED

 END READING OUTPUT CONTROL FOR STRESS PERIOD 328


 PROCESSING STORAGE PERIOD DATA
 END PROCESSING STORAGE PERIOD DATA


 STRESS PERIOD 328 IS TRANSIENT


 REUSING DRNS FROM LAST STRESS PERIOD

 REUSING RIVS FROM LAST STRESS PERIOD

 REUSING RIVS FROM LAST STRESS PERIOD

 REUSING RCHS FROM LAST STRESS PERIOD
 UBDSV06 SAVING              DRN IN MODEL GWF_1            PACKAGE GWF_1           CONNECTED TO MODEL GWF_1            PACKAGE DRN_SYS1         ON UNIT   1018 AT TIME STEP      1, STRESS PERIOD    328
 UBDSV06 SAVING              RIV IN MODEL GWF_1            PACKAGE GWF_1           CONNECTED TO MODEL GWF_1            PACKAGE RIV_SYS1         ON UNIT   1018 AT TIME STEP      1, STRESS PERIOD    328
 UBDSV06 SAVING              RIV IN MODEL GWF_1            PACKAGE GWF_1           CONNECTED TO MODEL GWF_1            PACKAGE RIV_SYS2         ON UNIT   1018 AT TIME STEP      1, STRESS PERIOD    328

 HEAD WILL BE SAVED ON UNIT 1017 AT END OF TIME STEP    1, STRESS PERIOD  328


  VOLUME BUDGET FOR ENTIRE MODEL AT END OF TIME STEP    1, STRESS PERIOD 328
  ---------------------------------------------------------------------------------------------------

     CUMULATIVE VOLUME      L**3       RATES FOR THIS TIME STEP      L**3/T          PACKAGE NAME    
     ------------------                 ------------------------                     ----------------

           IN:                                      IN:
           ---                                      ---
              STO-SS =      227438.2816                STO-SS =       2.2519E-04     STORAGE                          
                 DRN =           0.0000                   DRN =           0.0000     DRN_SYS1                         
                 RIV =      377143.2034                   RIV =        1275.8374     RIV_SYS1                         
                 RIV =           0.0000                   RIV =           0.0000     RIV_SYS2                         
                 RCH =           0.0000                   RCH =           0.0000     RCH_MSW                          

            TOTAL IN =      604581.4850              TOTAL IN =        1275.8376

          OUT:                                     OUT:
          ----                                     ----
              STO-SS =           0.0000                STO-SS =           0.0000     STORAGE                          
                 DRN =        8557.6991                   DRN =           9.3219     DRN_SYS1                         
                 RIV =      569200.2314                   RIV =        1226.8800     RIV_SYS1                         
                 RIV =       26825.2560                   RIV =          39.6358     RIV_SYS2                         
                 RCH =           0.0000                   RCH =           0.0000     RCH_MSW                          

           TOTAL OUT =      604583.1865             TOTAL OUT =        1275.8376

            IN - OUT =          -1.7015              IN - OUT =      -2.4696E-06

 PERCENT DISCREPANCY =          -0.00     PERCENT DISCREPANCY =          -0.00




         TIME SUMMARY AT END OF TIME STEP    1 IN STRESS PERIOD  328
                    SECONDS     MINUTES      HOURS       DAYS        YEARS
                    -----------------------------------------------------------
   TIME STEP LENGTH  86400.      1440.0      24.000      1.0000     2.73785E-03
 STRESS PERIOD TIME  86400.      1440.0      24.000      1.0000     2.73785E-03
         TOTAL TIME 2.83392E+07 4.72320E+05  7872.0      328.00     0.89802    


end timestep


start timestep kper="329" kstp="1" mode="normal"

 #Stressperiod Save Options

 BEGIN READING OUTPUT CONTROL FOR STRESS PERIOD 329
      ALL TIME STEPS WILL BE SAVED
      ALL TIME STEPS WILL BE SAVED

 END READING OUTPUT CONTROL FOR STRESS PERIOD 329


 PROCESSING STORAGE PERIOD DATA
 END PROCESSING STORAGE PERIOD DATA


 STRESS PERIOD 329 IS TRANSIENT


 REUSING DRNS FROM LAST STRESS PERIOD

 REUSING RIVS FROM LAST STRESS PERIOD

 REUSING RIVS FROM LAST STRESS PERIOD

 REUSING RCHS FROM LAST STRESS PERIOD
 UBDSV06 SAVING              DRN IN MODEL GWF_1            PACKAGE GWF_1           CONNECTED TO MODEL GWF_1            PACKAGE DRN_SYS1         ON UNIT   1018 AT TIME STEP      1, STRESS PERIOD    329
 UBDSV06 SAVING              RIV IN MODEL GWF_1            PACKAGE GWF_1           CONNECTED TO MODEL GWF_1            PACKAGE RIV_SYS1         ON UNIT   1018 AT TIME STEP      1, STRESS PERIOD    329
 UBDSV06 SAVING              RIV IN MODEL GWF_1            PACKAGE GWF_1           CONNECTED TO MODEL GWF_1            PACKAGE RIV_SYS2         ON UNIT   1018 AT TIME STEP      1, STRESS PERIOD    329

 HEAD WILL BE SAVED ON UNIT 1017 AT END OF TIME STEP    1, STRESS PERIOD  329


  VOLUME BUDGET FOR ENTIRE MODEL AT END OF TIME STEP    1, STRESS PERIOD 329
  ---------------------------------------------------------------------------------------------------

     CUMULATIVE VOLUME      L**3       RATES FOR THIS TIME STEP      L**3/T          PACKAGE NAME    
     ------------------                 ------------------------                     ----------------

           IN:                                      IN:
           ---                                      ---
              STO-SS =      227438.2818                STO-SS =       2.1342E-04     STORAGE                          
                 DRN =           0.0000                   DRN =           0.0000     DRN_SYS1                         
                 RIV =      378419.0408                   RIV =        1275.8374     RIV_SYS1                         
                 RIV =           0.0000                   RIV =           0.0000     RIV_SYS2                         
                 RCH =           0.0000                   RCH =           0.0000     RCH_MSW                          

            TOTAL IN =      605857.3226              TOTAL IN =        1275.8376

          OUT:                                     OUT:
          ----                                     ----
              STO-SS =           0.0000                STO-SS =           0.0000     STORAGE                          
                 DRN =        8567.0210                   DRN =           9.3219     DRN_SYS1                         
                 RIV =      570427.1113                   RIV =        1226.8800     RIV_SYS1                         
                 RIV =       26864.8918                   RIV =          39.6358     RIV_SYS2                         
                 RCH =           0.0000                   RCH =           0.0000     RCH_MSW                          

           TOTAL OUT =      605859.0241             TOTAL OUT =        1275.8376

            IN - OUT =          -1.7015              IN - OUT =      -2.3593E-06

 PERCENT DISCREPANCY =          -0.00     PERCENT DISCREPANCY =          -0.00




         TIME SUMMARY AT END OF TIME STEP    1 IN STRESS PERIOD  329
                    SECONDS     MINUTES      HOURS       DAYS        YEARS
                    -----------------------------------------------------------
   TIME STEP LENGTH  86400.      1440.0      24.000      1.0000     2.73785E-03
 STRESS PERIOD TIME  86400.      1440.0      24.000      1.0000     2.73785E-03
         TOTAL TIME 2.84256E+07 4.73760E+05  7896.0      329.00     0.90075    


end timestep


start timestep kper="330" kstp="1" mode="normal"

 #Stressperiod Save Options

 BEGIN READING OUTPUT CONTROL FOR STRESS PERIOD 330
      ALL TIME STEPS WILL BE SAVED
      ALL TIME STEPS WILL BE SAVED

 END READING OUTPUT CONTROL FOR STRESS PERIOD 330


 PROCESSING STORAGE PERIOD DATA
 END PROCESSING STORAGE PERIOD DATA


 STRESS PERIOD 330 IS TRANSIENT


 REUSING DRNS FROM LAST STRESS PERIOD

 REUSING RIVS FROM LAST STRESS PERIOD

 REUSING RIVS FROM LAST STRESS PERIOD

 REUSING RCHS FROM LAST STRESS PERIOD
 UBDSV06 SAVING              DRN IN MODEL GWF_1            PACKAGE GWF_1           CONNECTED TO MODEL GWF_1            PACKAGE DRN_SYS1         ON UNIT   1018 AT TIME STEP      1, STRESS PERIOD    330
 UBDSV06 SAVING              RIV IN MODEL GWF_1            PACKAGE GWF_1           CONNECTED TO MODEL GWF_1            PACKAGE RIV_SYS1         ON UNIT   1018 AT TIME STEP      1, STRESS PERIOD    330
 UBDSV06 SAVING              RIV IN MODEL GWF_1            PACKAGE GWF_1           CONNECTED TO MODEL GWF_1            PACKAGE RIV_SYS2         ON UNIT   1018 AT TIME STEP      1, STRESS PERIOD    330

 HEAD WILL BE SAVED ON UNIT 1017 AT END OF TIME STEP    1, STRESS PERIOD  330


  VOLUME BUDGET FOR ENTIRE MODEL AT END OF TIME STEP    1, STRESS PERIOD 330
  ---------------------------------------------------------------------------------------------------

     CUMULATIVE VOLUME      L**3       RATES FOR THIS TIME STEP      L**3/T          PACKAGE NAME    
     ------------------                 ------------------------                     ----------------

           IN:                                      IN:
           ---                                      ---
              STO-SS =      227438.2820                STO-SS =       2.0226E-04     STORAGE                          
                 DRN =           0.0000                   DRN =           0.0000     DRN_SYS1                         
                 RIV =      379694.8782                   RIV =        1275.8374     RIV_SYS1                         
                 RIV =           0.0000                   RIV =           0.0000     RIV_SYS2                         
                 RCH =           0.0000                   RCH =           0.0000     RCH_MSW                          

            TOTAL IN =      607133.1602              TOTAL IN =        1275.8376

          OUT:                                     OUT:
          ----                                     ----
              STO-SS =           0.0000                STO-SS =           0.0000     STORAGE                          
                 DRN =        8576.3429                   DRN =           9.3219     DRN_SYS1                         
                 RIV =      571653.9913                   RIV =        1226.8799     RIV_SYS1                         
                 RIV =       26904.5276                   RIV =          39.6358     RIV_SYS2                         
                 RCH =           0.0000                   RCH =           0.0000     RCH_MSW                          

           TOTAL OUT =      607134.8617             TOTAL OUT =        1275.8376

            IN - OUT =          -1.7015              IN - OUT =      -2.2558E-06

 PERCENT DISCREPANCY =          -0.00     PERCENT DISCREPANCY =          -0.00




         TIME SUMMARY AT END OF TIME STEP    1 IN STRESS PERIOD  330
                    SECONDS     MINUTES      HOURS       DAYS        YEARS
                    -----------------------------------------------------------
   TIME STEP LENGTH  86400.      1440.0      24.000      1.0000     2.73785E-03
 STRESS PERIOD TIME  86400.      1440.0      24.000      1.0000     2.73785E-03
         TOTAL TIME 2.85120E+07 4.75200E+05  7920.0      330.00     0.90349    


end timestep


start timestep kper="331" kstp="1" mode="normal"

 #Stressperiod Save Options

 BEGIN READING OUTPUT CONTROL FOR STRESS PERIOD 331
      ALL TIME STEPS WILL BE SAVED
      ALL TIME STEPS WILL BE SAVED

 END READING OUTPUT CONTROL FOR STRESS PERIOD 331


 PROCESSING STORAGE PERIOD DATA
 END PROCESSING STORAGE PERIOD DATA


 STRESS PERIOD 331 IS TRANSIENT


 REUSING DRNS FROM LAST STRESS PERIOD

 REUSING RIVS FROM LAST STRESS PERIOD

 REUSING RIVS FROM LAST STRESS PERIOD

 REUSING RCHS FROM LAST STRESS PERIOD
 UBDSV06 SAVING              DRN IN MODEL GWF_1            PACKAGE GWF_1           CONNECTED TO MODEL GWF_1            PACKAGE DRN_SYS1         ON UNIT   1018 AT TIME STEP      1, STRESS PERIOD    331
 UBDSV06 SAVING              RIV IN MODEL GWF_1            PACKAGE GWF_1           CONNECTED TO MODEL GWF_1            PACKAGE RIV_SYS1         ON UNIT   1018 AT TIME STEP      1, STRESS PERIOD    331
 UBDSV06 SAVING              RIV IN MODEL GWF_1            PACKAGE GWF_1           CONNECTED TO MODEL GWF_1            PACKAGE RIV_SYS2         ON UNIT   1018 AT TIME STEP      1, STRESS PERIOD    331

 HEAD WILL BE SAVED ON UNIT 1017 AT END OF TIME STEP    1, STRESS PERIOD  331


  VOLUME BUDGET FOR ENTIRE MODEL AT END OF TIME STEP    1, STRESS PERIOD 331
  ---------------------------------------------------------------------------------------------------

     CUMULATIVE VOLUME      L**3       RATES FOR THIS TIME STEP      L**3/T          PACKAGE NAME    
     ------------------                 ------------------------                     ----------------

           IN:                                      IN:
           ---                                      ---
              STO-SS =      227438.2822                STO-SS =       1.9168E-04     STORAGE                          
                 DRN =           0.0000                   DRN =           0.0000     DRN_SYS1                         
                 RIV =      380970.7157                   RIV =        1275.8374     RIV_SYS1                         
                 RIV =           0.0000                   RIV =           0.0000     RIV_SYS2                         
                 RCH =           0.0000                   RCH =           0.0000     RCH_MSW                          

            TOTAL IN =      608408.9978              TOTAL IN =        1275.8376

          OUT:                                     OUT:
          ----                                     ----
              STO-SS =           0.0000                STO-SS =           0.0000     STORAGE                          
                 DRN =        8585.6648                   DRN =           9.3219     DRN_SYS1                         
                 RIV =      572880.8712                   RIV =        1226.8799     RIV_SYS1                         
                 RIV =       26944.1634                   RIV =          39.6358     RIV_SYS2                         
                 RCH =           0.0000                   RCH =           0.0000     RCH_MSW                          

           TOTAL OUT =      608410.6993             TOTAL OUT =        1275.8376

            IN - OUT =          -1.7015              IN - OUT =      -2.1588E-06

 PERCENT DISCREPANCY =          -0.00     PERCENT DISCREPANCY =          -0.00




         TIME SUMMARY AT END OF TIME STEP    1 IN STRESS PERIOD  331
                    SECONDS     MINUTES      HOURS       DAYS        YEARS
                    -----------------------------------------------------------
   TIME STEP LENGTH  86400.      1440.0      24.000      1.0000     2.73785E-03
 STRESS PERIOD TIME  86400.      1440.0      24.000      1.0000     2.73785E-03
         TOTAL TIME 2.85984E+07 4.76640E+05  7944.0      331.00     0.90623    


end timestep


start timestep kper="332" kstp="1" mode="normal"

 #Stressperiod Save Options

 BEGIN READING OUTPUT CONTROL FOR STRESS PERIOD 332
      ALL TIME STEPS WILL BE SAVED
      ALL TIME STEPS WILL BE SAVED

 END READING OUTPUT CONTROL FOR STRESS PERIOD 332


 PROCESSING STORAGE PERIOD DATA
 END PROCESSING STORAGE PERIOD DATA


 STRESS PERIOD 332 IS TRANSIENT


 REUSING DRNS FROM LAST STRESS PERIOD

 REUSING RIVS FROM LAST STRESS PERIOD

 REUSING RIVS FROM LAST STRESS PERIOD

 REUSING RCHS FROM LAST STRESS PERIOD
 UBDSV06 SAVING              DRN IN MODEL GWF_1            PACKAGE GWF_1           CONNECTED TO MODEL GWF_1            PACKAGE DRN_SYS1         ON UNIT   1018 AT TIME STEP      1, STRESS PERIOD    332
 UBDSV06 SAVING              RIV IN MODEL GWF_1            PACKAGE GWF_1           CONNECTED TO MODEL GWF_1            PACKAGE RIV_SYS1         ON UNIT   1018 AT TIME STEP      1, STRESS PERIOD    332
 UBDSV06 SAVING              RIV IN MODEL GWF_1            PACKAGE GWF_1           CONNECTED TO MODEL GWF_1            PACKAGE RIV_SYS2         ON UNIT   1018 AT TIME STEP      1, STRESS PERIOD    332

 HEAD WILL BE SAVED ON UNIT 1017 AT END OF TIME STEP    1, STRESS PERIOD  332


  VOLUME BUDGET FOR ENTIRE MODEL AT END OF TIME STEP    1, STRESS PERIOD 332
  ---------------------------------------------------------------------------------------------------

     CUMULATIVE VOLUME      L**3       RATES FOR THIS TIME STEP      L**3/T          PACKAGE NAME    
     ------------------                 ------------------------                     ----------------

           IN:                                      IN:
           ---                                      ---
              STO-SS =      227438.2824                STO-SS =       1.8165E-04     STORAGE                          
                 DRN =           0.0000                   DRN =           0.0000     DRN_SYS1                         
                 RIV =      382246.5531                   RIV =        1275.8374     RIV_SYS1                         
                 RIV =           0.0000                   RIV =           0.0000     RIV_SYS2                         
                 RCH =           0.0000                   RCH =           0.0000     RCH_MSW                          

            TOTAL IN =      609684.8355              TOTAL IN =        1275.8376

          OUT:                                     OUT:
          ----                                     ----
              STO-SS =           0.0000                STO-SS =           0.0000     STORAGE                          
                 DRN =        8594.9867                   DRN =           9.3219     DRN_SYS1                         
                 RIV =      574107.7511                   RIV =        1226.8799     RIV_SYS1                         
                 RIV =       26983.7992                   RIV =          39.6358     RIV_SYS2                         
                 RCH =           0.0000                   RCH =           0.0000     RCH_MSW                          

           TOTAL OUT =      609686.5370             TOTAL OUT =        1275.8376

            IN - OUT =          -1.7015              IN - OUT =      -2.0680E-06

 PERCENT DISCREPANCY =          -0.00     PERCENT DISCREPANCY =          -0.00




         TIME SUMMARY AT END OF TIME STEP    1 IN STRESS PERIOD  332
                    SECONDS     MINUTES      HOURS       DAYS        YEARS
                    -----------------------------------------------------------
   TIME STEP LENGTH  86400.      1440.0      24.000      1.0000     2.73785E-03
 STRESS PERIOD TIME  86400.      1440.0      24.000      1.0000     2.73785E-03
         TOTAL TIME 2.86848E+07 4.78080E+05  7968.0      332.00     0.90897    


end timestep


start timestep kper="333" kstp="1" mode="normal"

 #Stressperiod Save Options

 BEGIN READING OUTPUT CONTROL FOR STRESS PERIOD 333
      ALL TIME STEPS WILL BE SAVED
      ALL TIME STEPS WILL BE SAVED

 END READING OUTPUT CONTROL FOR STRESS PERIOD 333


 PROCESSING STORAGE PERIOD DATA
 END PROCESSING STORAGE PERIOD DATA


 STRESS PERIOD 333 IS TRANSIENT


 REUSING DRNS FROM LAST STRESS PERIOD

 REUSING RIVS FROM LAST STRESS PERIOD

 REUSING RIVS FROM LAST STRESS PERIOD

 REUSING RCHS FROM LAST STRESS PERIOD
 UBDSV06 SAVING              DRN IN MODEL GWF_1            PACKAGE GWF_1           CONNECTED TO MODEL GWF_1            PACKAGE DRN_SYS1         ON UNIT   1018 AT TIME STEP      1, STRESS PERIOD    333
 UBDSV06 SAVING              RIV IN MODEL GWF_1            PACKAGE GWF_1           CONNECTED TO MODEL GWF_1            PACKAGE RIV_SYS1         ON UNIT   1018 AT TIME STEP      1, STRESS PERIOD    333
 UBDSV06 SAVING              RIV IN MODEL GWF_1            PACKAGE GWF_1           CONNECTED TO MODEL GWF_1            PACKAGE RIV_SYS2         ON UNIT   1018 AT TIME STEP      1, STRESS PERIOD    333

 HEAD WILL BE SAVED ON UNIT 1017 AT END OF TIME STEP    1, STRESS PERIOD  333


  VOLUME BUDGET FOR ENTIRE MODEL AT END OF TIME STEP    1, STRESS PERIOD 333
  ---------------------------------------------------------------------------------------------------

     CUMULATIVE VOLUME      L**3       RATES FOR THIS TIME STEP      L**3/T          PACKAGE NAME    
     ------------------                 ------------------------                     ----------------

           IN:                                      IN:
           ---                                      ---
              STO-SS =      227438.2825                STO-SS =       1.7215E-04     STORAGE                          
                 DRN =           0.0000                   DRN =           0.0000     DRN_SYS1                         
                 RIV =      383522.3905                   RIV =        1275.8374     RIV_SYS1                         
                 RIV =           0.0000                   RIV =           0.0000     RIV_SYS2                         
                 RCH =           0.0000                   RCH =           0.0000     RCH_MSW                          

            TOTAL IN =      610960.6731              TOTAL IN =        1275.8376

          OUT:                                     OUT:
          ----                                     ----
              STO-SS =           0.0000                STO-SS =           0.0000     STORAGE                          
                 DRN =        8604.3085                   DRN =           9.3219     DRN_SYS1                         
                 RIV =      575334.6310                   RIV =        1226.8799     RIV_SYS1                         
                 RIV =       27023.4350                   RIV =          39.6358     RIV_SYS2                         
                 RCH =           0.0000                   RCH =           0.0000     RCH_MSW                          

           TOTAL OUT =      610962.3746             TOTAL OUT =        1275.8376

            IN - OUT =          -1.7015              IN - OUT =      -1.9832E-06

 PERCENT DISCREPANCY =          -0.00     PERCENT DISCREPANCY =          -0.00




         TIME SUMMARY AT END OF TIME STEP    1 IN STRESS PERIOD  333
                    SECONDS     MINUTES      HOURS       DAYS        YEARS
                    -----------------------------------------------------------
   TIME STEP LENGTH  86400.      1440.0      24.000      1.0000     2.73785E-03
 STRESS PERIOD TIME  86400.      1440.0      24.000      1.0000     2.73785E-03
         TOTAL TIME 2.87712E+07 4.79520E+05  7992.0      333.00     0.91170    


end timestep


start timestep kper="334" kstp="1" mode="normal"

 #Stressperiod Save Options

 BEGIN READING OUTPUT CONTROL FOR STRESS PERIOD 334
      ALL TIME STEPS WILL BE SAVED
      ALL TIME STEPS WILL BE SAVED

 END READING OUTPUT CONTROL FOR STRESS PERIOD 334


 PROCESSING STORAGE PERIOD DATA
 END PROCESSING STORAGE PERIOD DATA


 STRESS PERIOD 334 IS TRANSIENT


 REUSING DRNS FROM LAST STRESS PERIOD

 REUSING RIVS FROM LAST STRESS PERIOD

 REUSING RIVS FROM LAST STRESS PERIOD

 REUSING RCHS FROM LAST STRESS PERIOD
 UBDSV06 SAVING              DRN IN MODEL GWF_1            PACKAGE GWF_1           CONNECTED TO MODEL GWF_1            PACKAGE DRN_SYS1         ON UNIT   1018 AT TIME STEP      1, STRESS PERIOD    334
 UBDSV06 SAVING              RIV IN MODEL GWF_1            PACKAGE GWF_1           CONNECTED TO MODEL GWF_1            PACKAGE RIV_SYS1         ON UNIT   1018 AT TIME STEP      1, STRESS PERIOD    334
 UBDSV06 SAVING              RIV IN MODEL GWF_1            PACKAGE GWF_1           CONNECTED TO MODEL GWF_1            PACKAGE RIV_SYS2         ON UNIT   1018 AT TIME STEP      1, STRESS PERIOD    334

 HEAD WILL BE SAVED ON UNIT 1017 AT END OF TIME STEP    1, STRESS PERIOD  334


  VOLUME BUDGET FOR ENTIRE MODEL AT END OF TIME STEP    1, STRESS PERIOD 334
  ---------------------------------------------------------------------------------------------------

     CUMULATIVE VOLUME      L**3       RATES FOR THIS TIME STEP      L**3/T          PACKAGE NAME    
     ------------------                 ------------------------                     ----------------

           IN:                                      IN:
           ---                                      ---
              STO-SS =      227438.2827                STO-SS =       1.6314E-04     STORAGE                          
                 DRN =           0.0000                   DRN =           0.0000     DRN_SYS1                         
                 RIV =      384798.2279                   RIV =        1275.8374     RIV_SYS1                         
                 RIV =           0.0000                   RIV =           0.0000     RIV_SYS2                         
                 RCH =           0.0000                   RCH =           0.0000     RCH_MSW                          

            TOTAL IN =      612236.5106              TOTAL IN =        1275.8376

          OUT:                                     OUT:
          ----                                     ----
              STO-SS =           0.0000                STO-SS =           0.0000     STORAGE                          
                 DRN =        8613.6304                   DRN =           9.3219     DRN_SYS1                         
                 RIV =      576561.5110                   RIV =        1226.8799     RIV_SYS1                         
                 RIV =       27063.0708                   RIV =          39.6358     RIV_SYS2                         
                 RCH =           0.0000                   RCH =           0.0000     RCH_MSW                          

           TOTAL OUT =      612238.2122             TOTAL OUT =        1275.8376

            IN - OUT =          -1.7015              IN - OUT =      -1.9042E-06

 PERCENT DISCREPANCY =          -0.00     PERCENT DISCREPANCY =          -0.00




         TIME SUMMARY AT END OF TIME STEP    1 IN STRESS PERIOD  334
                    SECONDS     MINUTES      HOURS       DAYS        YEARS
                    -----------------------------------------------------------
   TIME STEP LENGTH  86400.      1440.0      24.000      1.0000     2.73785E-03
 STRESS PERIOD TIME  86400.      1440.0      24.000      1.0000     2.73785E-03
         TOTAL TIME 2.88576E+07 4.80960E+05  8016.0      334.00     0.91444    


end timestep


start timestep kper="335" kstp="1" mode="normal"

 #Stressperiod Save Options

 BEGIN READING OUTPUT CONTROL FOR STRESS PERIOD 335
      ALL TIME STEPS WILL BE SAVED
      ALL TIME STEPS WILL BE SAVED

 END READING OUTPUT CONTROL FOR STRESS PERIOD 335


 PROCESSING STORAGE PERIOD DATA
 END PROCESSING STORAGE PERIOD DATA


 STRESS PERIOD 335 IS TRANSIENT


 REUSING DRNS FROM LAST STRESS PERIOD

 REUSING RIVS FROM LAST STRESS PERIOD

 REUSING RIVS FROM LAST STRESS PERIOD

 REUSING RCHS FROM LAST STRESS PERIOD
 UBDSV06 SAVING              DRN IN MODEL GWF_1            PACKAGE GWF_1           CONNECTED TO MODEL GWF_1            PACKAGE DRN_SYS1         ON UNIT   1018 AT TIME STEP      1, STRESS PERIOD    335
 UBDSV06 SAVING              RIV IN MODEL GWF_1            PACKAGE GWF_1           CONNECTED TO MODEL GWF_1            PACKAGE RIV_SYS1         ON UNIT   1018 AT TIME STEP      1, STRESS PERIOD    335
 UBDSV06 SAVING              RIV IN MODEL GWF_1            PACKAGE GWF_1           CONNECTED TO MODEL GWF_1            PACKAGE RIV_SYS2         ON UNIT   1018 AT TIME STEP      1, STRESS PERIOD    335

 HEAD WILL BE SAVED ON UNIT 1017 AT END OF TIME STEP    1, STRESS PERIOD  335


  VOLUME BUDGET FOR ENTIRE MODEL AT END OF TIME STEP    1, STRESS PERIOD 335
  ---------------------------------------------------------------------------------------------------

     CUMULATIVE VOLUME      L**3       RATES FOR THIS TIME STEP      L**3/T          PACKAGE NAME    
     ------------------                 ------------------------                     ----------------

           IN:                                      IN:
           ---                                      ---
              STO-SS =      227438.2829                STO-SS =       1.5460E-04     STORAGE                          
                 DRN =           0.0000                   DRN =           0.0000     DRN_SYS1                         
                 RIV =      386074.0654                   RIV =        1275.8374     RIV_SYS1                         
                 RIV =           0.0000                   RIV =           0.0000     RIV_SYS2                         
                 RCH =           0.0000                   RCH =           0.0000     RCH_MSW                          

            TOTAL IN =      613512.3482              TOTAL IN =        1275.8376

          OUT:                                     OUT:
          ----                                     ----
              STO-SS =           0.0000                STO-SS =           0.0000     STORAGE                          
                 DRN =        8622.9523                   DRN =           9.3219     DRN_SYS1                         
                 RIV =      577788.3909                   RIV =        1226.8799     RIV_SYS1                         
                 RIV =       27102.7065                   RIV =          39.6358     RIV_SYS2                         
                 RCH =           0.0000                   RCH =           0.0000     RCH_MSW                          

           TOTAL OUT =      613514.0497             TOTAL OUT =        1275.8376

            IN - OUT =          -1.7015              IN - OUT =      -1.8304E-06

 PERCENT DISCREPANCY =          -0.00     PERCENT DISCREPANCY =          -0.00




         TIME SUMMARY AT END OF TIME STEP    1 IN STRESS PERIOD  335
                    SECONDS     MINUTES      HOURS       DAYS        YEARS
                    -----------------------------------------------------------
   TIME STEP LENGTH  86400.      1440.0      24.000      1.0000     2.73785E-03
 STRESS PERIOD TIME  86400.      1440.0      24.000      1.0000     2.73785E-03
         TOTAL TIME 2.89440E+07 4.82400E+05  8040.0      335.00     0.91718    


end timestep


start timestep kper="336" kstp="1" mode="normal"

 #Stressperiod Save Options

 BEGIN READING OUTPUT CONTROL FOR STRESS PERIOD 336
      ALL TIME STEPS WILL BE SAVED
      ALL TIME STEPS WILL BE SAVED

 END READING OUTPUT CONTROL FOR STRESS PERIOD 336


 PROCESSING STORAGE PERIOD DATA
 END PROCESSING STORAGE PERIOD DATA


 STRESS PERIOD 336 IS TRANSIENT


 REUSING DRNS FROM LAST STRESS PERIOD

 REUSING RIVS FROM LAST STRESS PERIOD

 REUSING RIVS FROM LAST STRESS PERIOD

 REUSING RCHS FROM LAST STRESS PERIOD
 UBDSV06 SAVING              DRN IN MODEL GWF_1            PACKAGE GWF_1           CONNECTED TO MODEL GWF_1            PACKAGE DRN_SYS1         ON UNIT   1018 AT TIME STEP      1, STRESS PERIOD    336
 UBDSV06 SAVING              RIV IN MODEL GWF_1            PACKAGE GWF_1           CONNECTED TO MODEL GWF_1            PACKAGE RIV_SYS1         ON UNIT   1018 AT TIME STEP      1, STRESS PERIOD    336
 UBDSV06 SAVING              RIV IN MODEL GWF_1            PACKAGE GWF_1           CONNECTED TO MODEL GWF_1            PACKAGE RIV_SYS2         ON UNIT   1018 AT TIME STEP      1, STRESS PERIOD    336

 HEAD WILL BE SAVED ON UNIT 1017 AT END OF TIME STEP    1, STRESS PERIOD  336


  VOLUME BUDGET FOR ENTIRE MODEL AT END OF TIME STEP    1, STRESS PERIOD 336
  ---------------------------------------------------------------------------------------------------

     CUMULATIVE VOLUME      L**3       RATES FOR THIS TIME STEP      L**3/T          PACKAGE NAME    
     ------------------                 ------------------------                     ----------------

           IN:                                      IN:
           ---                                      ---
              STO-SS =      227438.2830                STO-SS =       1.4651E-04     STORAGE                          
                 DRN =           0.0000                   DRN =           0.0000     DRN_SYS1                         
                 RIV =      387349.9028                   RIV =        1275.8374     RIV_SYS1                         
                 RIV =           0.0000                   RIV =           0.0000     RIV_SYS2                         
                 RCH =           0.0000                   RCH =           0.0000     RCH_MSW                          

            TOTAL IN =      614788.1858              TOTAL IN =        1275.8376

          OUT:                                     OUT:
          ----                                     ----
              STO-SS =           0.0000                STO-SS =           0.0000     STORAGE                          
                 DRN =        8632.2742                   DRN =           9.3219     DRN_SYS1                         
                 RIV =      579015.2708                   RIV =        1226.8799     RIV_SYS1                         
                 RIV =       27142.3423                   RIV =          39.6358     RIV_SYS2                         
                 RCH =           0.0000                   RCH =           0.0000     RCH_MSW                          

           TOTAL OUT =      614789.8873             TOTAL OUT =        1275.8376

            IN - OUT =          -1.7015              IN - OUT =      -1.7620E-06

 PERCENT DISCREPANCY =          -0.00     PERCENT DISCREPANCY =          -0.00




         TIME SUMMARY AT END OF TIME STEP    1 IN STRESS PERIOD  336
                    SECONDS     MINUTES      HOURS       DAYS        YEARS
                    -----------------------------------------------------------
   TIME STEP LENGTH  86400.      1440.0      24.000      1.0000     2.73785E-03
 STRESS PERIOD TIME  86400.      1440.0      24.000      1.0000     2.73785E-03
         TOTAL TIME 2.90304E+07 4.83840E+05  8064.0      336.00     0.91992    


end timestep


start timestep kper="337" kstp="1" mode="normal"

 #Stressperiod Save Options

 BEGIN READING OUTPUT CONTROL FOR STRESS PERIOD 337
      ALL TIME STEPS WILL BE SAVED
      ALL TIME STEPS WILL BE SAVED

 END READING OUTPUT CONTROL FOR STRESS PERIOD 337


 PROCESSING STORAGE PERIOD DATA
 END PROCESSING STORAGE PERIOD DATA


 STRESS PERIOD 337 IS TRANSIENT


 REUSING DRNS FROM LAST STRESS PERIOD

 REUSING RIVS FROM LAST STRESS PERIOD

 REUSING RIVS FROM LAST STRESS PERIOD

 REUSING RCHS FROM LAST STRESS PERIOD
 UBDSV06 SAVING              DRN IN MODEL GWF_1            PACKAGE GWF_1           CONNECTED TO MODEL GWF_1            PACKAGE DRN_SYS1         ON UNIT   1018 AT TIME STEP      1, STRESS PERIOD    337
 UBDSV06 SAVING              RIV IN MODEL GWF_1            PACKAGE GWF_1           CONNECTED TO MODEL GWF_1            PACKAGE RIV_SYS1         ON UNIT   1018 AT TIME STEP      1, STRESS PERIOD    337
 UBDSV06 SAVING              RIV IN MODEL GWF_1            PACKAGE GWF_1           CONNECTED TO MODEL GWF_1            PACKAGE RIV_SYS2         ON UNIT   1018 AT TIME STEP      1, STRESS PERIOD    337

 HEAD WILL BE SAVED ON UNIT 1017 AT END OF TIME STEP    1, STRESS PERIOD  337


  VOLUME BUDGET FOR ENTIRE MODEL AT END OF TIME STEP    1, STRESS PERIOD 337
  ---------------------------------------------------------------------------------------------------

     CUMULATIVE VOLUME      L**3       RATES FOR THIS TIME STEP      L**3/T          PACKAGE NAME    
     ------------------                 ------------------------                     ----------------

           IN:                                      IN:
           ---                                      ---
              STO-SS =      227438.2831                STO-SS =       1.3884E-04     STORAGE                          
                 DRN =           0.0000                   DRN =           0.0000     DRN_SYS1                         
                 RIV =      388625.7403                   RIV =        1275.8374     RIV_SYS1                         
                 RIV =           0.0000                   RIV =           0.0000     RIV_SYS2                         
                 RCH =           0.0000                   RCH =           0.0000     RCH_MSW                          

            TOTAL IN =      616064.0234              TOTAL IN =        1275.8376

          OUT:                                     OUT:
          ----                                     ----
              STO-SS =           0.0000                STO-SS =           0.0000     STORAGE                          
                 DRN =        8641.5961                   DRN =           9.3219     DRN_SYS1                         
                 RIV =      580242.1507                   RIV =        1226.8799     RIV_SYS1                         
                 RIV =       27181.9781                   RIV =          39.6358     RIV_SYS2                         
                 RCH =           0.0000                   RCH =           0.0000     RCH_MSW                          

           TOTAL OUT =      616065.7249             TOTAL OUT =        1275.8376

            IN - OUT =          -1.7015              IN - OUT =      -1.6987E-06

 PERCENT DISCREPANCY =          -0.00     PERCENT DISCREPANCY =          -0.00




         TIME SUMMARY AT END OF TIME STEP    1 IN STRESS PERIOD  337
                    SECONDS     MINUTES      HOURS       DAYS        YEARS
                    -----------------------------------------------------------
   TIME STEP LENGTH  86400.      1440.0      24.000      1.0000     2.73785E-03
 STRESS PERIOD TIME  86400.      1440.0      24.000      1.0000     2.73785E-03
         TOTAL TIME 2.91168E+07 4.85280E+05  8088.0      337.00     0.92266    


end timestep


start timestep kper="338" kstp="1" mode="normal"

 #Stressperiod Save Options

 BEGIN READING OUTPUT CONTROL FOR STRESS PERIOD 338
      ALL TIME STEPS WILL BE SAVED
      ALL TIME STEPS WILL BE SAVED

 END READING OUTPUT CONTROL FOR STRESS PERIOD 338


 PROCESSING STORAGE PERIOD DATA
 END PROCESSING STORAGE PERIOD DATA


 STRESS PERIOD 338 IS TRANSIENT


 REUSING DRNS FROM LAST STRESS PERIOD

 REUSING RIVS FROM LAST STRESS PERIOD

 REUSING RIVS FROM LAST STRESS PERIOD

 REUSING RCHS FROM LAST STRESS PERIOD
 UBDSV06 SAVING              DRN IN MODEL GWF_1            PACKAGE GWF_1           CONNECTED TO MODEL GWF_1            PACKAGE DRN_SYS1         ON UNIT   1018 AT TIME STEP      1, STRESS PERIOD    338
 UBDSV06 SAVING              RIV IN MODEL GWF_1            PACKAGE GWF_1           CONNECTED TO MODEL GWF_1            PACKAGE RIV_SYS1         ON UNIT   1018 AT TIME STEP      1, STRESS PERIOD    338
 UBDSV06 SAVING              RIV IN MODEL GWF_1            PACKAGE GWF_1           CONNECTED TO MODEL GWF_1            PACKAGE RIV_SYS2         ON UNIT   1018 AT TIME STEP      1, STRESS PERIOD    338

 HEAD WILL BE SAVED ON UNIT 1017 AT END OF TIME STEP    1, STRESS PERIOD  338


  VOLUME BUDGET FOR ENTIRE MODEL AT END OF TIME STEP    1, STRESS PERIOD 338
  ---------------------------------------------------------------------------------------------------

     CUMULATIVE VOLUME      L**3       RATES FOR THIS TIME STEP      L**3/T          PACKAGE NAME    
     ------------------                 ------------------------                     ----------------

           IN:                                      IN:
           ---                                      ---
              STO-SS =      227438.2833                STO-SS =       1.3157E-04     STORAGE                          
                 DRN =           0.0000                   DRN =           0.0000     DRN_SYS1                         
                 RIV =      389901.5777                   RIV =        1275.8374     RIV_SYS1                         
                 RIV =           0.0000                   RIV =           0.0000     RIV_SYS2                         
                 RCH =           0.0000                   RCH =           0.0000     RCH_MSW                          

            TOTAL IN =      617339.8610              TOTAL IN =        1275.8376

          OUT:                                     OUT:
          ----                                     ----
              STO-SS =           0.0000                STO-SS =           0.0000     STORAGE                          
                 DRN =        8650.9180                   DRN =           9.3219     DRN_SYS1                         
                 RIV =      581469.0306                   RIV =        1226.8799     RIV_SYS1                         
                 RIV =       27221.6139                   RIV =          39.6358     RIV_SYS2                         
                 RCH =           0.0000                   RCH =           0.0000     RCH_MSW                          

           TOTAL OUT =      617341.5625             TOTAL OUT =        1275.8376

            IN - OUT =          -1.7015              IN - OUT =      -1.6401E-06

 PERCENT DISCREPANCY =          -0.00     PERCENT DISCREPANCY =          -0.00




         TIME SUMMARY AT END OF TIME STEP    1 IN STRESS PERIOD  338
                    SECONDS     MINUTES      HOURS       DAYS        YEARS
                    -----------------------------------------------------------
   TIME STEP LENGTH  86400.      1440.0      24.000      1.0000     2.73785E-03
 STRESS PERIOD TIME  86400.      1440.0      24.000      1.0000     2.73785E-03
         TOTAL TIME 2.92032E+07 4.86720E+05  8112.0      338.00     0.92539    


end timestep


start timestep kper="339" kstp="1" mode="normal"

 #Stressperiod Save Options

 BEGIN READING OUTPUT CONTROL FOR STRESS PERIOD 339
      ALL TIME STEPS WILL BE SAVED
      ALL TIME STEPS WILL BE SAVED

 END READING OUTPUT CONTROL FOR STRESS PERIOD 339


 PROCESSING STORAGE PERIOD DATA
 END PROCESSING STORAGE PERIOD DATA


 STRESS PERIOD 339 IS TRANSIENT


 REUSING DRNS FROM LAST STRESS PERIOD

 REUSING RIVS FROM LAST STRESS PERIOD

 REUSING RIVS FROM LAST STRESS PERIOD

 REUSING RCHS FROM LAST STRESS PERIOD
 UBDSV06 SAVING              DRN IN MODEL GWF_1            PACKAGE GWF_1           CONNECTED TO MODEL GWF_1            PACKAGE DRN_SYS1         ON UNIT   1018 AT TIME STEP      1, STRESS PERIOD    339
 UBDSV06 SAVING              RIV IN MODEL GWF_1            PACKAGE GWF_1           CONNECTED TO MODEL GWF_1            PACKAGE RIV_SYS1         ON UNIT   1018 AT TIME STEP      1, STRESS PERIOD    339
 UBDSV06 SAVING              RIV IN MODEL GWF_1            PACKAGE GWF_1           CONNECTED TO MODEL GWF_1            PACKAGE RIV_SYS2         ON UNIT   1018 AT TIME STEP      1, STRESS PERIOD    339

 HEAD WILL BE SAVED ON UNIT 1017 AT END OF TIME STEP    1, STRESS PERIOD  339


  VOLUME BUDGET FOR ENTIRE MODEL AT END OF TIME STEP    1, STRESS PERIOD 339
  ---------------------------------------------------------------------------------------------------

     CUMULATIVE VOLUME      L**3       RATES FOR THIS TIME STEP      L**3/T          PACKAGE NAME    
     ------------------                 ------------------------                     ----------------

           IN:                                      IN:
           ---                                      ---
              STO-SS =      227438.2834                STO-SS =       1.2468E-04     STORAGE                          
                 DRN =           0.0000                   DRN =           0.0000     DRN_SYS1                         
                 RIV =      391177.4151                   RIV =        1275.8374     RIV_SYS1                         
                 RIV =           0.0000                   RIV =           0.0000     RIV_SYS2                         
                 RCH =           0.0000                   RCH =           0.0000     RCH_MSW                          

            TOTAL IN =      618615.6985              TOTAL IN =        1275.8376

          OUT:                                     OUT:
          ----                                     ----
              STO-SS =           0.0000                STO-SS =           0.0000     STORAGE                          
                 DRN =        8660.2399                   DRN =           9.3219     DRN_SYS1                         
                 RIV =      582695.9105                   RIV =        1226.8799     RIV_SYS1                         
                 RIV =       27261.2497                   RIV =          39.6358     RIV_SYS2                         
                 RCH =           0.0000                   RCH =           0.0000     RCH_MSW                          

           TOTAL OUT =      618617.4001             TOTAL OUT =        1275.8376

            IN - OUT =          -1.7015              IN - OUT =      -1.5864E-06

 PERCENT DISCREPANCY =          -0.00     PERCENT DISCREPANCY =          -0.00




         TIME SUMMARY AT END OF TIME STEP    1 IN STRESS PERIOD  339
                    SECONDS     MINUTES      HOURS       DAYS        YEARS
                    -----------------------------------------------------------
   TIME STEP LENGTH  86400.      1440.0      24.000      1.0000     2.73785E-03
 STRESS PERIOD TIME  86400.      1440.0      24.000      1.0000     2.73785E-03
         TOTAL TIME 2.92896E+07 4.88160E+05  8136.0      339.00     0.92813    


end timestep


start timestep kper="340" kstp="1" mode="normal"

 #Stressperiod Save Options

 BEGIN READING OUTPUT CONTROL FOR STRESS PERIOD 340
      ALL TIME STEPS WILL BE SAVED
      ALL TIME STEPS WILL BE SAVED

 END READING OUTPUT CONTROL FOR STRESS PERIOD 340


 PROCESSING STORAGE PERIOD DATA
 END PROCESSING STORAGE PERIOD DATA


 STRESS PERIOD 340 IS TRANSIENT


 REUSING DRNS FROM LAST STRESS PERIOD

 REUSING RIVS FROM LAST STRESS PERIOD

 REUSING RIVS FROM LAST STRESS PERIOD

 REUSING RCHS FROM LAST STRESS PERIOD
 UBDSV06 SAVING              DRN IN MODEL GWF_1            PACKAGE GWF_1           CONNECTED TO MODEL GWF_1            PACKAGE DRN_SYS1         ON UNIT   1018 AT TIME STEP      1, STRESS PERIOD    340
 UBDSV06 SAVING              RIV IN MODEL GWF_1            PACKAGE GWF_1           CONNECTED TO MODEL GWF_1            PACKAGE RIV_SYS1         ON UNIT   1018 AT TIME STEP      1, STRESS PERIOD    340
 UBDSV06 SAVING              RIV IN MODEL GWF_1            PACKAGE GWF_1           CONNECTED TO MODEL GWF_1            PACKAGE RIV_SYS2         ON UNIT   1018 AT TIME STEP      1, STRESS PERIOD    340

 HEAD WILL BE SAVED ON UNIT 1017 AT END OF TIME STEP    1, STRESS PERIOD  340


  VOLUME BUDGET FOR ENTIRE MODEL AT END OF TIME STEP    1, STRESS PERIOD 340
  ---------------------------------------------------------------------------------------------------

     CUMULATIVE VOLUME      L**3       RATES FOR THIS TIME STEP      L**3/T          PACKAGE NAME    
     ------------------                 ------------------------                     ----------------

           IN:                                      IN:
           ---                                      ---
              STO-SS =      227438.2835                STO-SS =       1.1815E-04     STORAGE                          
                 DRN =           0.0000                   DRN =           0.0000     DRN_SYS1                         
                 RIV =      392453.2526                   RIV =        1275.8374     RIV_SYS1                         
                 RIV =           0.0000                   RIV =           0.0000     RIV_SYS2                         
                 RCH =           0.0000                   RCH =           0.0000     RCH_MSW                          

            TOTAL IN =      619891.5361              TOTAL IN =        1275.8376

          OUT:                                     OUT:
          ----                                     ----
              STO-SS =           0.0000                STO-SS =           0.0000     STORAGE                          
                 DRN =        8669.5618                   DRN =           9.3219     DRN_SYS1                         
                 RIV =      583922.7904                   RIV =        1226.8799     RIV_SYS1                         
                 RIV =       27300.8854                   RIV =          39.6358     RIV_SYS2                         
                 RCH =           0.0000                   RCH =           0.0000     RCH_MSW                          

           TOTAL OUT =      619893.2376             TOTAL OUT =        1275.8376

            IN - OUT =          -1.7015              IN - OUT =      -1.5372E-06

 PERCENT DISCREPANCY =          -0.00     PERCENT DISCREPANCY =          -0.00




         TIME SUMMARY AT END OF TIME STEP    1 IN STRESS PERIOD  340
                    SECONDS     MINUTES      HOURS       DAYS        YEARS
                    -----------------------------------------------------------
   TIME STEP LENGTH  86400.      1440.0      24.000      1.0000     2.73785E-03
 STRESS PERIOD TIME  86400.      1440.0      24.000      1.0000     2.73785E-03
         TOTAL TIME 2.93760E+07 4.89600E+05  8160.0      340.00     0.93087    


end timestep


start timestep kper="341" kstp="1" mode="normal"

 #Stressperiod Save Options

 BEGIN READING OUTPUT CONTROL FOR STRESS PERIOD 341
      ALL TIME STEPS WILL BE SAVED
      ALL TIME STEPS WILL BE SAVED

 END READING OUTPUT CONTROL FOR STRESS PERIOD 341


 PROCESSING STORAGE PERIOD DATA
 END PROCESSING STORAGE PERIOD DATA


 STRESS PERIOD 341 IS TRANSIENT


 REUSING DRNS FROM LAST STRESS PERIOD

 REUSING RIVS FROM LAST STRESS PERIOD

 REUSING RIVS FROM LAST STRESS PERIOD

 REUSING RCHS FROM LAST STRESS PERIOD
 UBDSV06 SAVING              DRN IN MODEL GWF_1            PACKAGE GWF_1           CONNECTED TO MODEL GWF_1            PACKAGE DRN_SYS1         ON UNIT   1018 AT TIME STEP      1, STRESS PERIOD    341
 UBDSV06 SAVING              RIV IN MODEL GWF_1            PACKAGE GWF_1           CONNECTED TO MODEL GWF_1            PACKAGE RIV_SYS1         ON UNIT   1018 AT TIME STEP      1, STRESS PERIOD    341
 UBDSV06 SAVING              RIV IN MODEL GWF_1            PACKAGE GWF_1           CONNECTED TO MODEL GWF_1            PACKAGE RIV_SYS2         ON UNIT   1018 AT TIME STEP      1, STRESS PERIOD    341

 HEAD WILL BE SAVED ON UNIT 1017 AT END OF TIME STEP    1, STRESS PERIOD  341


  VOLUME BUDGET FOR ENTIRE MODEL AT END OF TIME STEP    1, STRESS PERIOD 341
  ---------------------------------------------------------------------------------------------------

     CUMULATIVE VOLUME      L**3       RATES FOR THIS TIME STEP      L**3/T          PACKAGE NAME    
     ------------------                 ------------------------                     ----------------

           IN:                                      IN:
           ---                                      ---
              STO-SS =      227438.2836                STO-SS =       1.1196E-04     STORAGE                          
                 DRN =           0.0000                   DRN =           0.0000     DRN_SYS1                         
                 RIV =      393729.0900                   RIV =        1275.8374     RIV_SYS1                         
                 RIV =           0.0000                   RIV =           0.0000     RIV_SYS2                         
                 RCH =           0.0000                   RCH =           0.0000     RCH_MSW                          

            TOTAL IN =      621167.3737              TOTAL IN =        1275.8376

          OUT:                                     OUT:
          ----                                     ----
              STO-SS =           0.0000                STO-SS =           0.0000     STORAGE                          
                 DRN =        8678.8837                   DRN =           9.3219     DRN_SYS1                         
                 RIV =      585149.6703                   RIV =        1226.8799     RIV_SYS1                         
                 RIV =       27340.5212                   RIV =          39.6358     RIV_SYS2                         
                 RCH =           0.0000                   RCH =           0.0000     RCH_MSW                          

           TOTAL OUT =      621169.0752             TOTAL OUT =        1275.8376

            IN - OUT =          -1.7015              IN - OUT =      -1.4924E-06

 PERCENT DISCREPANCY =          -0.00     PERCENT DISCREPANCY =          -0.00




         TIME SUMMARY AT END OF TIME STEP    1 IN STRESS PERIOD  341
                    SECONDS     MINUTES      HOURS       DAYS        YEARS
                    -----------------------------------------------------------
   TIME STEP LENGTH  86400.      1440.0      24.000      1.0000     2.73785E-03
 STRESS PERIOD TIME  86400.      1440.0      24.000      1.0000     2.73785E-03
         TOTAL TIME 2.94624E+07 4.91040E+05  8184.0      341.00     0.93361    


end timestep


start timestep kper="342" kstp="1" mode="normal"

 #Stressperiod Save Options

 BEGIN READING OUTPUT CONTROL FOR STRESS PERIOD 342
      ALL TIME STEPS WILL BE SAVED
      ALL TIME STEPS WILL BE SAVED

 END READING OUTPUT CONTROL FOR STRESS PERIOD 342


 PROCESSING STORAGE PERIOD DATA
 END PROCESSING STORAGE PERIOD DATA


 STRESS PERIOD 342 IS TRANSIENT


 REUSING DRNS FROM LAST STRESS PERIOD

 REUSING RIVS FROM LAST STRESS PERIOD

 REUSING RIVS FROM LAST STRESS PERIOD

 REUSING RCHS FROM LAST STRESS PERIOD
 UBDSV06 SAVING              DRN IN MODEL GWF_1            PACKAGE GWF_1           CONNECTED TO MODEL GWF_1            PACKAGE DRN_SYS1         ON UNIT   1018 AT TIME STEP      1, STRESS PERIOD    342
 UBDSV06 SAVING              RIV IN MODEL GWF_1            PACKAGE GWF_1           CONNECTED TO MODEL GWF_1            PACKAGE RIV_SYS1         ON UNIT   1018 AT TIME STEP      1, STRESS PERIOD    342
 UBDSV06 SAVING              RIV IN MODEL GWF_1            PACKAGE GWF_1           CONNECTED TO MODEL GWF_1            PACKAGE RIV_SYS2         ON UNIT   1018 AT TIME STEP      1, STRESS PERIOD    342

 HEAD WILL BE SAVED ON UNIT 1017 AT END OF TIME STEP    1, STRESS PERIOD  342


  VOLUME BUDGET FOR ENTIRE MODEL AT END OF TIME STEP    1, STRESS PERIOD 342
  ---------------------------------------------------------------------------------------------------

     CUMULATIVE VOLUME      L**3       RATES FOR THIS TIME STEP      L**3/T          PACKAGE NAME    
     ------------------                 ------------------------                     ----------------

           IN:                                      IN:
           ---                                      ---
              STO-SS =      227438.2837                STO-SS =       1.0609E-04     STORAGE                          
                 DRN =           0.0000                   DRN =           0.0000     DRN_SYS1                         
                 RIV =      395004.9275                   RIV =        1275.8374     RIV_SYS1                         
                 RIV =           0.0000                   RIV =           0.0000     RIV_SYS2                         
                 RCH =           0.0000                   RCH =           0.0000     RCH_MSW                          

            TOTAL IN =      622443.2112              TOTAL IN =        1275.8376

          OUT:                                     OUT:
          ----                                     ----
              STO-SS =           0.0000                STO-SS =           0.0000     STORAGE                          
                 DRN =        8688.2056                   DRN =           9.3219     DRN_SYS1                         
                 RIV =      586376.5502                   RIV =        1226.8799     RIV_SYS1                         
                 RIV =       27380.1570                   RIV =          39.6358     RIV_SYS2                         
                 RCH =           0.0000                   RCH =           0.0000     RCH_MSW                          

           TOTAL OUT =      622444.9127             TOTAL OUT =        1275.8376

            IN - OUT =          -1.7015              IN - OUT =      -1.4518E-06

 PERCENT DISCREPANCY =          -0.00     PERCENT DISCREPANCY =          -0.00




         TIME SUMMARY AT END OF TIME STEP    1 IN STRESS PERIOD  342
                    SECONDS     MINUTES      HOURS       DAYS        YEARS
                    -----------------------------------------------------------
   TIME STEP LENGTH  86400.      1440.0      24.000      1.0000     2.73785E-03
 STRESS PERIOD TIME  86400.      1440.0      24.000      1.0000     2.73785E-03
         TOTAL TIME 2.95488E+07 4.92480E+05  8208.0      342.00     0.93634    


end timestep


start timestep kper="343" kstp="1" mode="normal"

 #Stressperiod Save Options

 BEGIN READING OUTPUT CONTROL FOR STRESS PERIOD 343
      ALL TIME STEPS WILL BE SAVED
      ALL TIME STEPS WILL BE SAVED

 END READING OUTPUT CONTROL FOR STRESS PERIOD 343


 PROCESSING STORAGE PERIOD DATA
 END PROCESSING STORAGE PERIOD DATA


 STRESS PERIOD 343 IS TRANSIENT


 REUSING DRNS FROM LAST STRESS PERIOD

 REUSING RIVS FROM LAST STRESS PERIOD

 REUSING RIVS FROM LAST STRESS PERIOD

 REUSING RCHS FROM LAST STRESS PERIOD
 UBDSV06 SAVING              DRN IN MODEL GWF_1            PACKAGE GWF_1           CONNECTED TO MODEL GWF_1            PACKAGE DRN_SYS1         ON UNIT   1018 AT TIME STEP      1, STRESS PERIOD    343
 UBDSV06 SAVING              RIV IN MODEL GWF_1            PACKAGE GWF_1           CONNECTED TO MODEL GWF_1            PACKAGE RIV_SYS1         ON UNIT   1018 AT TIME STEP      1, STRESS PERIOD    343
 UBDSV06 SAVING              RIV IN MODEL GWF_1            PACKAGE GWF_1           CONNECTED TO MODEL GWF_1            PACKAGE RIV_SYS2         ON UNIT   1018 AT TIME STEP      1, STRESS PERIOD    343

 HEAD WILL BE SAVED ON UNIT 1017 AT END OF TIME STEP    1, STRESS PERIOD  343


  VOLUME BUDGET FOR ENTIRE MODEL AT END OF TIME STEP    1, STRESS PERIOD 343
  ---------------------------------------------------------------------------------------------------

     CUMULATIVE VOLUME      L**3       RATES FOR THIS TIME STEP      L**3/T          PACKAGE NAME    
     ------------------                 ------------------------                     ----------------

           IN:                                      IN:
           ---                                      ---
              STO-SS =      227438.2838                STO-SS =       1.0053E-04     STORAGE                          
                 DRN =           0.0000                   DRN =           0.0000     DRN_SYS1                         
                 RIV =      396280.7649                   RIV =        1275.8375     RIV_SYS1                         
                 RIV =           0.0000                   RIV =           0.0000     RIV_SYS2                         
                 RCH =           0.0000                   RCH =           0.0000     RCH_MSW                          

            TOTAL IN =      623719.0488              TOTAL IN =        1275.8376

          OUT:                                     OUT:
          ----                                     ----
              STO-SS =           0.0000                STO-SS =           0.0000     STORAGE                          
                 DRN =        8697.5274                   DRN =           9.3219     DRN_SYS1                         
                 RIV =      587603.4301                   RIV =        1226.8799     RIV_SYS1                         
                 RIV =       27419.7928                   RIV =          39.6358     RIV_SYS2                         
                 RCH =           0.0000                   RCH =           0.0000     RCH_MSW                          

           TOTAL OUT =      623720.7503             TOTAL OUT =        1275.8376

            IN - OUT =          -1.7015              IN - OUT =      -1.4154E-06

 PERCENT DISCREPANCY =          -0.00     PERCENT DISCREPANCY =          -0.00




         TIME SUMMARY AT END OF TIME STEP    1 IN STRESS PERIOD  343
                    SECONDS     MINUTES      HOURS       DAYS        YEARS
                    -----------------------------------------------------------
   TIME STEP LENGTH  86400.      1440.0      24.000      1.0000     2.73785E-03
 STRESS PERIOD TIME  86400.      1440.0      24.000      1.0000     2.73785E-03
         TOTAL TIME 2.96352E+07 4.93920E+05  8232.0      343.00     0.93908    


end timestep


start timestep kper="344" kstp="1" mode="normal"

 #Stressperiod Save Options

 BEGIN READING OUTPUT CONTROL FOR STRESS PERIOD 344
      ALL TIME STEPS WILL BE SAVED
      ALL TIME STEPS WILL BE SAVED

 END READING OUTPUT CONTROL FOR STRESS PERIOD 344


 PROCESSING STORAGE PERIOD DATA
 END PROCESSING STORAGE PERIOD DATA


 STRESS PERIOD 344 IS TRANSIENT


 REUSING DRNS FROM LAST STRESS PERIOD

 REUSING RIVS FROM LAST STRESS PERIOD

 REUSING RIVS FROM LAST STRESS PERIOD

 REUSING RCHS FROM LAST STRESS PERIOD
 UBDSV06 SAVING              DRN IN MODEL GWF_1            PACKAGE GWF_1           CONNECTED TO MODEL GWF_1            PACKAGE DRN_SYS1         ON UNIT   1018 AT TIME STEP      1, STRESS PERIOD    344
 UBDSV06 SAVING              RIV IN MODEL GWF_1            PACKAGE GWF_1           CONNECTED TO MODEL GWF_1            PACKAGE RIV_SYS1         ON UNIT   1018 AT TIME STEP      1, STRESS PERIOD    344
 UBDSV06 SAVING              RIV IN MODEL GWF_1            PACKAGE GWF_1           CONNECTED TO MODEL GWF_1            PACKAGE RIV_SYS2         ON UNIT   1018 AT TIME STEP      1, STRESS PERIOD    344

 HEAD WILL BE SAVED ON UNIT 1017 AT END OF TIME STEP    1, STRESS PERIOD  344


  VOLUME BUDGET FOR ENTIRE MODEL AT END OF TIME STEP    1, STRESS PERIOD 344
  ---------------------------------------------------------------------------------------------------

     CUMULATIVE VOLUME      L**3       RATES FOR THIS TIME STEP      L**3/T          PACKAGE NAME    
     ------------------                 ------------------------                     ----------------

           IN:                                      IN:
           ---                                      ---
              STO-SS =      227438.2839                STO-SS =       9.5257E-05     STORAGE                          
                 DRN =           0.0000                   DRN =           0.0000     DRN_SYS1                         
                 RIV =      397556.6024                   RIV =        1275.8375     RIV_SYS1                         
                 RIV =           0.0000                   RIV =           0.0000     RIV_SYS2                         
                 RCH =           0.0000                   RCH =           0.0000     RCH_MSW                          

            TOTAL IN =      624994.8863              TOTAL IN =        1275.8375

          OUT:                                     OUT:
          ----                                     ----
              STO-SS =           0.0000                STO-SS =           0.0000     STORAGE                          
                 DRN =        8706.8493                   DRN =           9.3219     DRN_SYS1                         
                 RIV =      588830.3099                   RIV =        1226.8799     RIV_SYS1                         
                 RIV =       27459.4286                   RIV =          39.6358     RIV_SYS2                         
                 RCH =           0.0000                   RCH =           0.0000     RCH_MSW                          

           TOTAL OUT =      624996.5878             TOTAL OUT =        1275.8375

            IN - OUT =          -1.7015              IN - OUT =      -1.3829E-06

 PERCENT DISCREPANCY =          -0.00     PERCENT DISCREPANCY =          -0.00




         TIME SUMMARY AT END OF TIME STEP    1 IN STRESS PERIOD  344
                    SECONDS     MINUTES      HOURS       DAYS        YEARS
                    -----------------------------------------------------------
   TIME STEP LENGTH  86400.      1440.0      24.000      1.0000     2.73785E-03
 STRESS PERIOD TIME  86400.      1440.0      24.000      1.0000     2.73785E-03
         TOTAL TIME 2.97216E+07 4.95360E+05  8256.0      344.00     0.94182    


end timestep


start timestep kper="345" kstp="1" mode="normal"

 #Stressperiod Save Options

 BEGIN READING OUTPUT CONTROL FOR STRESS PERIOD 345
      ALL TIME STEPS WILL BE SAVED
      ALL TIME STEPS WILL BE SAVED

 END READING OUTPUT CONTROL FOR STRESS PERIOD 345


 PROCESSING STORAGE PERIOD DATA
 END PROCESSING STORAGE PERIOD DATA


 STRESS PERIOD 345 IS TRANSIENT


 REUSING DRNS FROM LAST STRESS PERIOD

 REUSING RIVS FROM LAST STRESS PERIOD

 REUSING RIVS FROM LAST STRESS PERIOD

 REUSING RCHS FROM LAST STRESS PERIOD
 UBDSV06 SAVING              DRN IN MODEL GWF_1            PACKAGE GWF_1           CONNECTED TO MODEL GWF_1            PACKAGE DRN_SYS1         ON UNIT   1018 AT TIME STEP      1, STRESS PERIOD    345
 UBDSV06 SAVING              RIV IN MODEL GWF_1            PACKAGE GWF_1           CONNECTED TO MODEL GWF_1            PACKAGE RIV_SYS1         ON UNIT   1018 AT TIME STEP      1, STRESS PERIOD    345
 UBDSV06 SAVING              RIV IN MODEL GWF_1            PACKAGE GWF_1           CONNECTED TO MODEL GWF_1            PACKAGE RIV_SYS2         ON UNIT   1018 AT TIME STEP      1, STRESS PERIOD    345

 HEAD WILL BE SAVED ON UNIT 1017 AT END OF TIME STEP    1, STRESS PERIOD  345


  VOLUME BUDGET FOR ENTIRE MODEL AT END OF TIME STEP    1, STRESS PERIOD 345
  ---------------------------------------------------------------------------------------------------

     CUMULATIVE VOLUME      L**3       RATES FOR THIS TIME STEP      L**3/T          PACKAGE NAME    
     ------------------                 ------------------------                     ----------------

           IN:                                      IN:
           ---                                      ---
              STO-SS =      227438.2840                STO-SS =       9.0258E-05     STORAGE                          
                 DRN =           0.0000                   DRN =           0.0000     DRN_SYS1                         
                 RIV =      398832.4398                   RIV =        1275.8375     RIV_SYS1                         
                 RIV =           0.0000                   RIV =           0.0000     RIV_SYS2                         
                 RCH =           0.0000                   RCH =           0.0000     RCH_MSW                          

            TOTAL IN =      626270.7239              TOTAL IN =        1275.8375

          OUT:                                     OUT:
          ----                                     ----
              STO-SS =           0.0000                STO-SS =           0.0000     STORAGE                          
                 DRN =        8716.1712                   DRN =           9.3219     DRN_SYS1                         
                 RIV =      590057.1898                   RIV =        1226.8799     RIV_SYS1                         
                 RIV =       27499.0644                   RIV =          39.6358     RIV_SYS2                         
                 RCH =           0.0000                   RCH =           0.0000     RCH_MSW                          

           TOTAL OUT =      626272.4254             TOTAL OUT =        1275.8375

            IN - OUT =          -1.7015              IN - OUT =      -1.3544E-06

 PERCENT DISCREPANCY =          -0.00     PERCENT DISCREPANCY =          -0.00




         TIME SUMMARY AT END OF TIME STEP    1 IN STRESS PERIOD  345
                    SECONDS     MINUTES      HOURS       DAYS        YEARS
                    -----------------------------------------------------------
   TIME STEP LENGTH  86400.      1440.0      24.000      1.0000     2.73785E-03
 STRESS PERIOD TIME  86400.      1440.0      24.000      1.0000     2.73785E-03
         TOTAL TIME 2.98080E+07 4.96800E+05  8280.0      345.00     0.94456    


end timestep


start timestep kper="346" kstp="1" mode="normal"

 #Stressperiod Save Options

 BEGIN READING OUTPUT CONTROL FOR STRESS PERIOD 346
      ALL TIME STEPS WILL BE SAVED
      ALL TIME STEPS WILL BE SAVED

 END READING OUTPUT CONTROL FOR STRESS PERIOD 346


 PROCESSING STORAGE PERIOD DATA
 END PROCESSING STORAGE PERIOD DATA


 STRESS PERIOD 346 IS TRANSIENT


 REUSING DRNS FROM LAST STRESS PERIOD

 REUSING RIVS FROM LAST STRESS PERIOD

 REUSING RIVS FROM LAST STRESS PERIOD

 REUSING RCHS FROM LAST STRESS PERIOD
 UBDSV06 SAVING              DRN IN MODEL GWF_1            PACKAGE GWF_1           CONNECTED TO MODEL GWF_1            PACKAGE DRN_SYS1         ON UNIT   1018 AT TIME STEP      1, STRESS PERIOD    346
 UBDSV06 SAVING              RIV IN MODEL GWF_1            PACKAGE GWF_1           CONNECTED TO MODEL GWF_1            PACKAGE RIV_SYS1         ON UNIT   1018 AT TIME STEP      1, STRESS PERIOD    346
 UBDSV06 SAVING              RIV IN MODEL GWF_1            PACKAGE GWF_1           CONNECTED TO MODEL GWF_1            PACKAGE RIV_SYS2         ON UNIT   1018 AT TIME STEP      1, STRESS PERIOD    346

 HEAD WILL BE SAVED ON UNIT 1017 AT END OF TIME STEP    1, STRESS PERIOD  346


  VOLUME BUDGET FOR ENTIRE MODEL AT END OF TIME STEP    1, STRESS PERIOD 346
  ---------------------------------------------------------------------------------------------------

     CUMULATIVE VOLUME      L**3       RATES FOR THIS TIME STEP      L**3/T          PACKAGE NAME    
     ------------------                 ------------------------                     ----------------

           IN:                                      IN:
           ---                                      ---
              STO-SS =      227438.2841                STO-SS =       8.5520E-05     STORAGE                          
                 DRN =           0.0000                   DRN =           0.0000     DRN_SYS1                         
                 RIV =      400108.2773                   RIV =        1275.8375     RIV_SYS1                         
                 RIV =           0.0000                   RIV =           0.0000     RIV_SYS2                         
                 RCH =           0.0000                   RCH =           0.0000     RCH_MSW                          

            TOTAL IN =      627546.5614              TOTAL IN =        1275.8375

          OUT:                                     OUT:
          ----                                     ----
              STO-SS =           0.0000                STO-SS =           0.0000     STORAGE                          
                 DRN =        8725.4931                   DRN =           9.3219     DRN_SYS1                         
                 RIV =      591284.0697                   RIV =        1226.8799     RIV_SYS1                         
                 RIV =       27538.7001                   RIV =          39.6358     RIV_SYS2                         
                 RCH =           0.0000                   RCH =           0.0000     RCH_MSW                          

           TOTAL OUT =      627548.2629             TOTAL OUT =        1275.8375

            IN - OUT =          -1.7015              IN - OUT =      -1.3299E-06

 PERCENT DISCREPANCY =          -0.00     PERCENT DISCREPANCY =          -0.00




         TIME SUMMARY AT END OF TIME STEP    1 IN STRESS PERIOD  346
                    SECONDS     MINUTES      HOURS       DAYS        YEARS
                    -----------------------------------------------------------
   TIME STEP LENGTH  86400.      1440.0      24.000      1.0000     2.73785E-03
 STRESS PERIOD TIME  86400.      1440.0      24.000      1.0000     2.73785E-03
         TOTAL TIME 2.98944E+07 4.98240E+05  8304.0      346.00     0.94730    


end timestep


start timestep kper="347" kstp="1" mode="normal"

 #Stressperiod Save Options

 BEGIN READING OUTPUT CONTROL FOR STRESS PERIOD 347
      ALL TIME STEPS WILL BE SAVED
      ALL TIME STEPS WILL BE SAVED

 END READING OUTPUT CONTROL FOR STRESS PERIOD 347


 PROCESSING STORAGE PERIOD DATA
 END PROCESSING STORAGE PERIOD DATA


 STRESS PERIOD 347 IS TRANSIENT


 REUSING DRNS FROM LAST STRESS PERIOD

 REUSING RIVS FROM LAST STRESS PERIOD

 REUSING RIVS FROM LAST STRESS PERIOD

 REUSING RCHS FROM LAST STRESS PERIOD
 UBDSV06 SAVING              DRN IN MODEL GWF_1            PACKAGE GWF_1           CONNECTED TO MODEL GWF_1            PACKAGE DRN_SYS1         ON UNIT   1018 AT TIME STEP      1, STRESS PERIOD    347
 UBDSV06 SAVING              RIV IN MODEL GWF_1            PACKAGE GWF_1           CONNECTED TO MODEL GWF_1            PACKAGE RIV_SYS1         ON UNIT   1018 AT TIME STEP      1, STRESS PERIOD    347
 UBDSV06 SAVING              RIV IN MODEL GWF_1            PACKAGE GWF_1           CONNECTED TO MODEL GWF_1            PACKAGE RIV_SYS2         ON UNIT   1018 AT TIME STEP      1, STRESS PERIOD    347

 HEAD WILL BE SAVED ON UNIT 1017 AT END OF TIME STEP    1, STRESS PERIOD  347


  VOLUME BUDGET FOR ENTIRE MODEL AT END OF TIME STEP    1, STRESS PERIOD 347
  ---------------------------------------------------------------------------------------------------

     CUMULATIVE VOLUME      L**3       RATES FOR THIS TIME STEP      L**3/T          PACKAGE NAME    
     ------------------                 ------------------------                     ----------------

           IN:                                      IN:
           ---                                      ---
              STO-SS =      227438.2842                STO-SS =       8.1028E-05     STORAGE                          
                 DRN =           0.0000                   DRN =           0.0000     DRN_SYS1                         
                 RIV =      401384.1148                   RIV =        1275.8375     RIV_SYS1                         
                 RIV =           0.0000                   RIV =           0.0000     RIV_SYS2                         
                 RCH =           0.0000                   RCH =           0.0000     RCH_MSW                          

            TOTAL IN =      628822.3989              TOTAL IN =        1275.8375

          OUT:                                     OUT:
          ----                                     ----
              STO-SS =           0.0000                STO-SS =           0.0000     STORAGE                          
                 DRN =        8734.8150                   DRN =           9.3219     DRN_SYS1                         
                 RIV =      592510.9496                   RIV =        1226.8799     RIV_SYS1                         
                 RIV =       27578.3359                   RIV =          39.6358     RIV_SYS2                         
                 RCH =           0.0000                   RCH =           0.0000     RCH_MSW                          

           TOTAL OUT =      628824.1005             TOTAL OUT =        1275.8375

            IN - OUT =          -1.7015              IN - OUT =      -1.3090E-06

 PERCENT DISCREPANCY =          -0.00     PERCENT DISCREPANCY =          -0.00




         TIME SUMMARY AT END OF TIME STEP    1 IN STRESS PERIOD  347
                    SECONDS     MINUTES      HOURS       DAYS        YEARS
                    -----------------------------------------------------------
   TIME STEP LENGTH  86400.      1440.0      24.000      1.0000     2.73785E-03
 STRESS PERIOD TIME  86400.      1440.0      24.000      1.0000     2.73785E-03
         TOTAL TIME 2.99808E+07 4.99680E+05  8328.0      347.00     0.95003    


end timestep


start timestep kper="348" kstp="1" mode="normal"

 #Stressperiod Save Options

 BEGIN READING OUTPUT CONTROL FOR STRESS PERIOD 348
      ALL TIME STEPS WILL BE SAVED
      ALL TIME STEPS WILL BE SAVED

 END READING OUTPUT CONTROL FOR STRESS PERIOD 348


 PROCESSING STORAGE PERIOD DATA
 END PROCESSING STORAGE PERIOD DATA


 STRESS PERIOD 348 IS TRANSIENT


 REUSING DRNS FROM LAST STRESS PERIOD

 REUSING RIVS FROM LAST STRESS PERIOD

 REUSING RIVS FROM LAST STRESS PERIOD

 REUSING RCHS FROM LAST STRESS PERIOD
 UBDSV06 SAVING              DRN IN MODEL GWF_1            PACKAGE GWF_1           CONNECTED TO MODEL GWF_1            PACKAGE DRN_SYS1         ON UNIT   1018 AT TIME STEP      1, STRESS PERIOD    348
 UBDSV06 SAVING              RIV IN MODEL GWF_1            PACKAGE GWF_1           CONNECTED TO MODEL GWF_1            PACKAGE RIV_SYS1         ON UNIT   1018 AT TIME STEP      1, STRESS PERIOD    348
 UBDSV06 SAVING              RIV IN MODEL GWF_1            PACKAGE GWF_1           CONNECTED TO MODEL GWF_1            PACKAGE RIV_SYS2         ON UNIT   1018 AT TIME STEP      1, STRESS PERIOD    348

 HEAD WILL BE SAVED ON UNIT 1017 AT END OF TIME STEP    1, STRESS PERIOD  348


  VOLUME BUDGET FOR ENTIRE MODEL AT END OF TIME STEP    1, STRESS PERIOD 348
  ---------------------------------------------------------------------------------------------------

     CUMULATIVE VOLUME      L**3       RATES FOR THIS TIME STEP      L**3/T          PACKAGE NAME    
     ------------------                 ------------------------                     ----------------

           IN:                                      IN:
           ---                                      ---
              STO-SS =      227438.2843                STO-SS =       7.6769E-05     STORAGE                          
                 DRN =           0.0000                   DRN =           0.0000     DRN_SYS1                         
                 RIV =      402659.9522                   RIV =        1275.8375     RIV_SYS1                         
                 RIV =           0.0000                   RIV =           0.0000     RIV_SYS2                         
                 RCH =           0.0000                   RCH =           0.0000     RCH_MSW                          

            TOTAL IN =      630098.2365              TOTAL IN =        1275.8375

          OUT:                                     OUT:
          ----                                     ----
              STO-SS =           0.0000                STO-SS =           0.0000     STORAGE                          
                 DRN =        8744.1369                   DRN =           9.3219     DRN_SYS1                         
                 RIV =      593737.8294                   RIV =        1226.8799     RIV_SYS1                         
                 RIV =       27617.9717                   RIV =          39.6358     RIV_SYS2                         
                 RCH =           0.0000                   RCH =           0.0000     RCH_MSW                          

           TOTAL OUT =      630099.9380             TOTAL OUT =        1275.8375

            IN - OUT =          -1.7015              IN - OUT =      -1.2919E-06

 PERCENT DISCREPANCY =          -0.00     PERCENT DISCREPANCY =          -0.00




         TIME SUMMARY AT END OF TIME STEP    1 IN STRESS PERIOD  348
                    SECONDS     MINUTES      HOURS       DAYS        YEARS
                    -----------------------------------------------------------
   TIME STEP LENGTH  86400.      1440.0      24.000      1.0000     2.73785E-03
 STRESS PERIOD TIME  86400.      1440.0      24.000      1.0000     2.73785E-03
         TOTAL TIME 3.00672E+07 5.01120E+05  8352.0      348.00     0.95277    


end timestep


start timestep kper="349" kstp="1" mode="normal"

 #Stressperiod Save Options

 BEGIN READING OUTPUT CONTROL FOR STRESS PERIOD 349
      ALL TIME STEPS WILL BE SAVED
      ALL TIME STEPS WILL BE SAVED

 END READING OUTPUT CONTROL FOR STRESS PERIOD 349


 PROCESSING STORAGE PERIOD DATA
 END PROCESSING STORAGE PERIOD DATA


 STRESS PERIOD 349 IS TRANSIENT


 REUSING DRNS FROM LAST STRESS PERIOD

 REUSING RIVS FROM LAST STRESS PERIOD

 REUSING RIVS FROM LAST STRESS PERIOD

 REUSING RCHS FROM LAST STRESS PERIOD
 UBDSV06 SAVING              DRN IN MODEL GWF_1            PACKAGE GWF_1           CONNECTED TO MODEL GWF_1            PACKAGE DRN_SYS1         ON UNIT   1018 AT TIME STEP      1, STRESS PERIOD    349
 UBDSV06 SAVING              RIV IN MODEL GWF_1            PACKAGE GWF_1           CONNECTED TO MODEL GWF_1            PACKAGE RIV_SYS1         ON UNIT   1018 AT TIME STEP      1, STRESS PERIOD    349
 UBDSV06 SAVING              RIV IN MODEL GWF_1            PACKAGE GWF_1           CONNECTED TO MODEL GWF_1            PACKAGE RIV_SYS2         ON UNIT   1018 AT TIME STEP      1, STRESS PERIOD    349

 HEAD WILL BE SAVED ON UNIT 1017 AT END OF TIME STEP    1, STRESS PERIOD  349


  VOLUME BUDGET FOR ENTIRE MODEL AT END OF TIME STEP    1, STRESS PERIOD 349
  ---------------------------------------------------------------------------------------------------

     CUMULATIVE VOLUME      L**3       RATES FOR THIS TIME STEP      L**3/T          PACKAGE NAME    
     ------------------                 ------------------------                     ----------------

           IN:                                      IN:
           ---                                      ---
              STO-SS =      227438.2843                STO-SS =       7.2732E-05     STORAGE                          
                 DRN =           0.0000                   DRN =           0.0000     DRN_SYS1                         
                 RIV =      403935.7897                   RIV =        1275.8375     RIV_SYS1                         
                 RIV =           0.0000                   RIV =           0.0000     RIV_SYS2                         
                 RCH =           0.0000                   RCH =           0.0000     RCH_MSW                          

            TOTAL IN =      631374.0740              TOTAL IN =        1275.8375

          OUT:                                     OUT:
          ----                                     ----
              STO-SS =           0.0000                STO-SS =           0.0000     STORAGE                          
                 DRN =        8753.4588                   DRN =           9.3219     DRN_SYS1                         
                 RIV =      594964.7093                   RIV =        1226.8799     RIV_SYS1                         
                 RIV =       27657.6075                   RIV =          39.6358     RIV_SYS2                         
                 RCH =           0.0000                   RCH =           0.0000     RCH_MSW                          

           TOTAL OUT =      631375.7755             TOTAL OUT =        1275.8375

            IN - OUT =          -1.7015              IN - OUT =      -1.2783E-06

 PERCENT DISCREPANCY =          -0.00     PERCENT DISCREPANCY =          -0.00




         TIME SUMMARY AT END OF TIME STEP    1 IN STRESS PERIOD  349
                    SECONDS     MINUTES      HOURS       DAYS        YEARS
                    -----------------------------------------------------------
   TIME STEP LENGTH  86400.      1440.0      24.000      1.0000     2.73785E-03
 STRESS PERIOD TIME  86400.      1440.0      24.000      1.0000     2.73785E-03
         TOTAL TIME 3.01536E+07 5.02560E+05  8376.0      349.00     0.95551    


end timestep


start timestep kper="350" kstp="1" mode="normal"

 #Stressperiod Save Options

 BEGIN READING OUTPUT CONTROL FOR STRESS PERIOD 350
      ALL TIME STEPS WILL BE SAVED
      ALL TIME STEPS WILL BE SAVED

 END READING OUTPUT CONTROL FOR STRESS PERIOD 350


 PROCESSING STORAGE PERIOD DATA
 END PROCESSING STORAGE PERIOD DATA


 STRESS PERIOD 350 IS TRANSIENT


 REUSING DRNS FROM LAST STRESS PERIOD

 REUSING RIVS FROM LAST STRESS PERIOD

 REUSING RIVS FROM LAST STRESS PERIOD

 REUSING RCHS FROM LAST STRESS PERIOD
 UBDSV06 SAVING              DRN IN MODEL GWF_1            PACKAGE GWF_1           CONNECTED TO MODEL GWF_1            PACKAGE DRN_SYS1         ON UNIT   1018 AT TIME STEP      1, STRESS PERIOD    350
 UBDSV06 SAVING              RIV IN MODEL GWF_1            PACKAGE GWF_1           CONNECTED TO MODEL GWF_1            PACKAGE RIV_SYS1         ON UNIT   1018 AT TIME STEP      1, STRESS PERIOD    350
 UBDSV06 SAVING              RIV IN MODEL GWF_1            PACKAGE GWF_1           CONNECTED TO MODEL GWF_1            PACKAGE RIV_SYS2         ON UNIT   1018 AT TIME STEP      1, STRESS PERIOD    350

 HEAD WILL BE SAVED ON UNIT 1017 AT END OF TIME STEP    1, STRESS PERIOD  350


  VOLUME BUDGET FOR ENTIRE MODEL AT END OF TIME STEP    1, STRESS PERIOD 350
  ---------------------------------------------------------------------------------------------------

     CUMULATIVE VOLUME      L**3       RATES FOR THIS TIME STEP      L**3/T          PACKAGE NAME    
     ------------------                 ------------------------                     ----------------

           IN:                                      IN:
           ---                                      ---
              STO-SS =      227438.2844                STO-SS =       6.8904E-05     STORAGE                          
                 DRN =           0.0000                   DRN =           0.0000     DRN_SYS1                         
                 RIV =      405211.6271                   RIV =        1275.8375     RIV_SYS1                         
                 RIV =           0.0000                   RIV =           0.0000     RIV_SYS2                         
                 RCH =           0.0000                   RCH =           0.0000     RCH_MSW                          

            TOTAL IN =      632649.9115              TOTAL IN =        1275.8375

          OUT:                                     OUT:
          ----                                     ----
              STO-SS =           0.0000                STO-SS =           0.0000     STORAGE                          
                 DRN =        8762.7807                   DRN =           9.3219     DRN_SYS1                         
                 RIV =      596191.5892                   RIV =        1226.8799     RIV_SYS1                         
                 RIV =       27697.2433                   RIV =          39.6358     RIV_SYS2                         
                 RCH =           0.0000                   RCH =           0.0000     RCH_MSW                          

           TOTAL OUT =      632651.6131             TOTAL OUT =        1275.8375

            IN - OUT =          -1.7015              IN - OUT =      -1.2683E-06

 PERCENT DISCREPANCY =          -0.00     PERCENT DISCREPANCY =          -0.00




         TIME SUMMARY AT END OF TIME STEP    1 IN STRESS PERIOD  350
                    SECONDS     MINUTES      HOURS       DAYS        YEARS
                    -----------------------------------------------------------
   TIME STEP LENGTH  86400.      1440.0      24.000      1.0000     2.73785E-03
 STRESS PERIOD TIME  86400.      1440.0      24.000      1.0000     2.73785E-03
         TOTAL TIME 3.02400E+07 5.04000E+05  8400.0      350.00     0.95825    


end timestep


start timestep kper="351" kstp="1" mode="normal"

 #Stressperiod Save Options

 BEGIN READING OUTPUT CONTROL FOR STRESS PERIOD 351
      ALL TIME STEPS WILL BE SAVED
      ALL TIME STEPS WILL BE SAVED

 END READING OUTPUT CONTROL FOR STRESS PERIOD 351


 PROCESSING STORAGE PERIOD DATA
 END PROCESSING STORAGE PERIOD DATA


 STRESS PERIOD 351 IS TRANSIENT


 REUSING DRNS FROM LAST STRESS PERIOD

 REUSING RIVS FROM LAST STRESS PERIOD

 REUSING RIVS FROM LAST STRESS PERIOD

 REUSING RCHS FROM LAST STRESS PERIOD
 UBDSV06 SAVING              DRN IN MODEL GWF_1            PACKAGE GWF_1           CONNECTED TO MODEL GWF_1            PACKAGE DRN_SYS1         ON UNIT   1018 AT TIME STEP      1, STRESS PERIOD    351
 UBDSV06 SAVING              RIV IN MODEL GWF_1            PACKAGE GWF_1           CONNECTED TO MODEL GWF_1            PACKAGE RIV_SYS1         ON UNIT   1018 AT TIME STEP      1, STRESS PERIOD    351
 UBDSV06 SAVING              RIV IN MODEL GWF_1            PACKAGE GWF_1           CONNECTED TO MODEL GWF_1            PACKAGE RIV_SYS2         ON UNIT   1018 AT TIME STEP      1, STRESS PERIOD    351

 HEAD WILL BE SAVED ON UNIT 1017 AT END OF TIME STEP    1, STRESS PERIOD  351


  VOLUME BUDGET FOR ENTIRE MODEL AT END OF TIME STEP    1, STRESS PERIOD 351
  ---------------------------------------------------------------------------------------------------

     CUMULATIVE VOLUME      L**3       RATES FOR THIS TIME STEP      L**3/T          PACKAGE NAME    
     ------------------                 ------------------------                     ----------------

           IN:                                      IN:
           ---                                      ---
              STO-SS =      227438.2845                STO-SS =       6.5275E-05     STORAGE                          
                 DRN =           0.0000                   DRN =           0.0000     DRN_SYS1                         
                 RIV =      406487.4646                   RIV =        1275.8375     RIV_SYS1                         
                 RIV =           0.0000                   RIV =           0.0000     RIV_SYS2                         
                 RCH =           0.0000                   RCH =           0.0000     RCH_MSW                          

            TOTAL IN =      633925.7491              TOTAL IN =        1275.8375

          OUT:                                     OUT:
          ----                                     ----
              STO-SS =           0.0000                STO-SS =           0.0000     STORAGE                          
                 DRN =        8772.1026                   DRN =           9.3219     DRN_SYS1                         
                 RIV =      597418.4690                   RIV =        1226.8799     RIV_SYS1                         
                 RIV =       27736.8790                   RIV =          39.6358     RIV_SYS2                         
                 RCH =           0.0000                   RCH =           0.0000     RCH_MSW                          

           TOTAL OUT =      633927.4506             TOTAL OUT =        1275.8375

            IN - OUT =          -1.7015              IN - OUT =      -1.2617E-06

 PERCENT DISCREPANCY =          -0.00     PERCENT DISCREPANCY =          -0.00




         TIME SUMMARY AT END OF TIME STEP    1 IN STRESS PERIOD  351
                    SECONDS     MINUTES      HOURS       DAYS        YEARS
                    -----------------------------------------------------------
   TIME STEP LENGTH  86400.      1440.0      24.000      1.0000     2.73785E-03
 STRESS PERIOD TIME  86400.      1440.0      24.000      1.0000     2.73785E-03
         TOTAL TIME 3.03264E+07 5.05440E+05  8424.0      351.00     0.96099    


end timestep


start timestep kper="352" kstp="1" mode="normal"

 #Stressperiod Save Options

 BEGIN READING OUTPUT CONTROL FOR STRESS PERIOD 352
      ALL TIME STEPS WILL BE SAVED
      ALL TIME STEPS WILL BE SAVED

 END READING OUTPUT CONTROL FOR STRESS PERIOD 352


 PROCESSING STORAGE PERIOD DATA
 END PROCESSING STORAGE PERIOD DATA


 STRESS PERIOD 352 IS TRANSIENT


 REUSING DRNS FROM LAST STRESS PERIOD

 REUSING RIVS FROM LAST STRESS PERIOD

 REUSING RIVS FROM LAST STRESS PERIOD

 REUSING RCHS FROM LAST STRESS PERIOD
 UBDSV06 SAVING              DRN IN MODEL GWF_1            PACKAGE GWF_1           CONNECTED TO MODEL GWF_1            PACKAGE DRN_SYS1         ON UNIT   1018 AT TIME STEP      1, STRESS PERIOD    352
 UBDSV06 SAVING              RIV IN MODEL GWF_1            PACKAGE GWF_1           CONNECTED TO MODEL GWF_1            PACKAGE RIV_SYS1         ON UNIT   1018 AT TIME STEP      1, STRESS PERIOD    352
 UBDSV06 SAVING              RIV IN MODEL GWF_1            PACKAGE GWF_1           CONNECTED TO MODEL GWF_1            PACKAGE RIV_SYS2         ON UNIT   1018 AT TIME STEP      1, STRESS PERIOD    352

 HEAD WILL BE SAVED ON UNIT 1017 AT END OF TIME STEP    1, STRESS PERIOD  352


  VOLUME BUDGET FOR ENTIRE MODEL AT END OF TIME STEP    1, STRESS PERIOD 352
  ---------------------------------------------------------------------------------------------------

     CUMULATIVE VOLUME      L**3       RATES FOR THIS TIME STEP      L**3/T          PACKAGE NAME    
     ------------------                 ------------------------                     ----------------

           IN:                                      IN:
           ---                                      ---
              STO-SS =      227438.2845                STO-SS =       6.1835E-05     STORAGE                          
                 DRN =           0.0000                   DRN =           0.0000     DRN_SYS1                         
                 RIV =      407763.3021                   RIV =        1275.8375     RIV_SYS1                         
                 RIV =           0.0000                   RIV =           0.0000     RIV_SYS2                         
                 RCH =           0.0000                   RCH =           0.0000     RCH_MSW                          

            TOTAL IN =      635201.5866              TOTAL IN =        1275.8375

          OUT:                                     OUT:
          ----                                     ----
              STO-SS =           0.0000                STO-SS =           0.0000     STORAGE                          
                 DRN =        8781.4244                   DRN =           9.3219     DRN_SYS1                         
                 RIV =      598645.3489                   RIV =        1226.8799     RIV_SYS1                         
                 RIV =       27776.5148                   RIV =          39.6358     RIV_SYS2                         
                 RCH =           0.0000                   RCH =           0.0000     RCH_MSW                          

           TOTAL OUT =      635203.2881             TOTAL OUT =        1275.8375

            IN - OUT =          -1.7015              IN - OUT =      -1.2587E-06

 PERCENT DISCREPANCY =          -0.00     PERCENT DISCREPANCY =          -0.00




         TIME SUMMARY AT END OF TIME STEP    1 IN STRESS PERIOD  352
                    SECONDS     MINUTES      HOURS       DAYS        YEARS
                    -----------------------------------------------------------
   TIME STEP LENGTH  86400.      1440.0      24.000      1.0000     2.73785E-03
 STRESS PERIOD TIME  86400.      1440.0      24.000      1.0000     2.73785E-03
         TOTAL TIME 3.04128E+07 5.06880E+05  8448.0      352.00     0.96372    


end timestep


start timestep kper="353" kstp="1" mode="normal"

 #Stressperiod Save Options

 BEGIN READING OUTPUT CONTROL FOR STRESS PERIOD 353
      ALL TIME STEPS WILL BE SAVED
      ALL TIME STEPS WILL BE SAVED

 END READING OUTPUT CONTROL FOR STRESS PERIOD 353


 PROCESSING STORAGE PERIOD DATA
 END PROCESSING STORAGE PERIOD DATA


 STRESS PERIOD 353 IS TRANSIENT


 REUSING DRNS FROM LAST STRESS PERIOD

 REUSING RIVS FROM LAST STRESS PERIOD

 REUSING RIVS FROM LAST STRESS PERIOD

 REUSING RCHS FROM LAST STRESS PERIOD
 UBDSV06 SAVING              DRN IN MODEL GWF_1            PACKAGE GWF_1           CONNECTED TO MODEL GWF_1            PACKAGE DRN_SYS1         ON UNIT   1018 AT TIME STEP      1, STRESS PERIOD    353
 UBDSV06 SAVING              RIV IN MODEL GWF_1            PACKAGE GWF_1           CONNECTED TO MODEL GWF_1            PACKAGE RIV_SYS1         ON UNIT   1018 AT TIME STEP      1, STRESS PERIOD    353
 UBDSV06 SAVING              RIV IN MODEL GWF_1            PACKAGE GWF_1           CONNECTED TO MODEL GWF_1            PACKAGE RIV_SYS2         ON UNIT   1018 AT TIME STEP      1, STRESS PERIOD    353

 HEAD WILL BE SAVED ON UNIT 1017 AT END OF TIME STEP    1, STRESS PERIOD  353


  VOLUME BUDGET FOR ENTIRE MODEL AT END OF TIME STEP    1, STRESS PERIOD 353
  ---------------------------------------------------------------------------------------------------

     CUMULATIVE VOLUME      L**3       RATES FOR THIS TIME STEP      L**3/T          PACKAGE NAME    
     ------------------                 ------------------------                     ----------------

           IN:                                      IN:
           ---                                      ---
              STO-SS =      227438.2846                STO-SS =       5.8572E-05     STORAGE                          
                 DRN =           0.0000                   DRN =           0.0000     DRN_SYS1                         
                 RIV =      409039.1395                   RIV =        1275.8375     RIV_SYS1                         
                 RIV =           0.0000                   RIV =           0.0000     RIV_SYS2                         
                 RCH =           0.0000                   RCH =           0.0000     RCH_MSW                          

            TOTAL IN =      636477.4241              TOTAL IN =        1275.8375

          OUT:                                     OUT:
          ----                                     ----
              STO-SS =           0.0000                STO-SS =           0.0000     STORAGE                          
                 DRN =        8790.7463                   DRN =           9.3219     DRN_SYS1                         
                 RIV =      599872.2287                   RIV =        1226.8799     RIV_SYS1                         
                 RIV =       27816.1506                   RIV =          39.6358     RIV_SYS2                         
                 RCH =           0.0000                   RCH =           0.0000     RCH_MSW                          

           TOTAL OUT =      636479.1257             TOTAL OUT =        1275.8375

            IN - OUT =          -1.7015              IN - OUT =      -1.2590E-06

 PERCENT DISCREPANCY =          -0.00     PERCENT DISCREPANCY =          -0.00




         TIME SUMMARY AT END OF TIME STEP    1 IN STRESS PERIOD  353
                    SECONDS     MINUTES      HOURS       DAYS        YEARS
                    -----------------------------------------------------------
   TIME STEP LENGTH  86400.      1440.0      24.000      1.0000     2.73785E-03
 STRESS PERIOD TIME  86400.      1440.0      24.000      1.0000     2.73785E-03
         TOTAL TIME 3.04992E+07 5.08320E+05  8472.0      353.00     0.96646    


end timestep


start timestep kper="354" kstp="1" mode="normal"

 #Stressperiod Save Options

 BEGIN READING OUTPUT CONTROL FOR STRESS PERIOD 354
      ALL TIME STEPS WILL BE SAVED
      ALL TIME STEPS WILL BE SAVED

 END READING OUTPUT CONTROL FOR STRESS PERIOD 354


 PROCESSING STORAGE PERIOD DATA
 END PROCESSING STORAGE PERIOD DATA


 STRESS PERIOD 354 IS TRANSIENT


 REUSING DRNS FROM LAST STRESS PERIOD

 REUSING RIVS FROM LAST STRESS PERIOD

 REUSING RIVS FROM LAST STRESS PERIOD

 REUSING RCHS FROM LAST STRESS PERIOD
 UBDSV06 SAVING              DRN IN MODEL GWF_1            PACKAGE GWF_1           CONNECTED TO MODEL GWF_1            PACKAGE DRN_SYS1         ON UNIT   1018 AT TIME STEP      1, STRESS PERIOD    354
 UBDSV06 SAVING              RIV IN MODEL GWF_1            PACKAGE GWF_1           CONNECTED TO MODEL GWF_1            PACKAGE RIV_SYS1         ON UNIT   1018 AT TIME STEP      1, STRESS PERIOD    354
 UBDSV06 SAVING              RIV IN MODEL GWF_1            PACKAGE GWF_1           CONNECTED TO MODEL GWF_1            PACKAGE RIV_SYS2         ON UNIT   1018 AT TIME STEP      1, STRESS PERIOD    354

 HEAD WILL BE SAVED ON UNIT 1017 AT END OF TIME STEP    1, STRESS PERIOD  354


  VOLUME BUDGET FOR ENTIRE MODEL AT END OF TIME STEP    1, STRESS PERIOD 354
  ---------------------------------------------------------------------------------------------------

     CUMULATIVE VOLUME      L**3       RATES FOR THIS TIME STEP      L**3/T          PACKAGE NAME    
     ------------------                 ------------------------                     ----------------

           IN:                                      IN:
           ---                                      ---
              STO-SS =      227438.2846                STO-SS =       5.5479E-05     STORAGE                          
                 DRN =           0.0000                   DRN =           0.0000     DRN_SYS1                         
                 RIV =      410314.9770                   RIV =        1275.8375     RIV_SYS1                         
                 RIV =           0.0000                   RIV =           0.0000     RIV_SYS2                         
                 RCH =           0.0000                   RCH =           0.0000     RCH_MSW                          

            TOTAL IN =      637753.2616              TOTAL IN =        1275.8375

          OUT:                                     OUT:
          ----                                     ----
              STO-SS =           0.0000                STO-SS =           0.0000     STORAGE                          
                 DRN =        8800.0682                   DRN =           9.3219     DRN_SYS1                         
                 RIV =      601099.1086                   RIV =        1226.8799     RIV_SYS1                         
                 RIV =       27855.7864                   RIV =          39.6358     RIV_SYS2                         
                 RCH =           0.0000                   RCH =           0.0000     RCH_MSW                          

           TOTAL OUT =      637754.9632             TOTAL OUT =        1275.8375

            IN - OUT =          -1.7015              IN - OUT =      -1.2628E-06

 PERCENT DISCREPANCY =          -0.00     PERCENT DISCREPANCY =          -0.00




         TIME SUMMARY AT END OF TIME STEP    1 IN STRESS PERIOD  354
                    SECONDS     MINUTES      HOURS       DAYS        YEARS
                    -----------------------------------------------------------
   TIME STEP LENGTH  86400.      1440.0      24.000      1.0000     2.73785E-03
 STRESS PERIOD TIME  86400.      1440.0      24.000      1.0000     2.73785E-03
         TOTAL TIME 3.05856E+07 5.09760E+05  8496.0      354.00     0.96920    


end timestep


start timestep kper="355" kstp="1" mode="normal"

 #Stressperiod Save Options

 BEGIN READING OUTPUT CONTROL FOR STRESS PERIOD 355
      ALL TIME STEPS WILL BE SAVED
      ALL TIME STEPS WILL BE SAVED

 END READING OUTPUT CONTROL FOR STRESS PERIOD 355


 PROCESSING STORAGE PERIOD DATA
 END PROCESSING STORAGE PERIOD DATA


 STRESS PERIOD 355 IS TRANSIENT


 REUSING DRNS FROM LAST STRESS PERIOD

 REUSING RIVS FROM LAST STRESS PERIOD

 REUSING RIVS FROM LAST STRESS PERIOD

 REUSING RCHS FROM LAST STRESS PERIOD
 UBDSV06 SAVING              DRN IN MODEL GWF_1            PACKAGE GWF_1           CONNECTED TO MODEL GWF_1            PACKAGE DRN_SYS1         ON UNIT   1018 AT TIME STEP      1, STRESS PERIOD    355
 UBDSV06 SAVING              RIV IN MODEL GWF_1            PACKAGE GWF_1           CONNECTED TO MODEL GWF_1            PACKAGE RIV_SYS1         ON UNIT   1018 AT TIME STEP      1, STRESS PERIOD    355
 UBDSV06 SAVING              RIV IN MODEL GWF_1            PACKAGE GWF_1           CONNECTED TO MODEL GWF_1            PACKAGE RIV_SYS2         ON UNIT   1018 AT TIME STEP      1, STRESS PERIOD    355

 HEAD WILL BE SAVED ON UNIT 1017 AT END OF TIME STEP    1, STRESS PERIOD  355


  VOLUME BUDGET FOR ENTIRE MODEL AT END OF TIME STEP    1, STRESS PERIOD 355
  ---------------------------------------------------------------------------------------------------

     CUMULATIVE VOLUME      L**3       RATES FOR THIS TIME STEP      L**3/T          PACKAGE NAME    
     ------------------                 ------------------------                     ----------------

           IN:                                      IN:
           ---                                      ---
              STO-SS =      227438.2847                STO-SS =       5.2545E-05     STORAGE                          
                 DRN =           0.0000                   DRN =           0.0000     DRN_SYS1                         
                 RIV =      411590.8145                   RIV =        1275.8375     RIV_SYS1                         
                 RIV =           0.0000                   RIV =           0.0000     RIV_SYS2                         
                 RCH =           0.0000                   RCH =           0.0000     RCH_MSW                          

            TOTAL IN =      639029.0992              TOTAL IN =        1275.8375

          OUT:                                     OUT:
          ----                                     ----
              STO-SS =           0.0000                STO-SS =           0.0000     STORAGE                          
                 DRN =        8809.3901                   DRN =           9.3219     DRN_SYS1                         
                 RIV =      602325.9885                   RIV =        1226.8799     RIV_SYS1                         
                 RIV =       27895.4221                   RIV =          39.6358     RIV_SYS2                         
                 RCH =           0.0000                   RCH =           0.0000     RCH_MSW                          

           TOTAL OUT =      639030.8007             TOTAL OUT =        1275.8375

            IN - OUT =          -1.7015              IN - OUT =      -1.2701E-06

 PERCENT DISCREPANCY =          -0.00     PERCENT DISCREPANCY =          -0.00




         TIME SUMMARY AT END OF TIME STEP    1 IN STRESS PERIOD  355
                    SECONDS     MINUTES      HOURS       DAYS        YEARS
                    -----------------------------------------------------------
   TIME STEP LENGTH  86400.      1440.0      24.000      1.0000     2.73785E-03
 STRESS PERIOD TIME  86400.      1440.0      24.000      1.0000     2.73785E-03
         TOTAL TIME 3.06720E+07 5.11200E+05  8520.0      355.00     0.97194    


end timestep


start timestep kper="356" kstp="1" mode="normal"

 #Stressperiod Save Options

 BEGIN READING OUTPUT CONTROL FOR STRESS PERIOD 356
      ALL TIME STEPS WILL BE SAVED
      ALL TIME STEPS WILL BE SAVED

 END READING OUTPUT CONTROL FOR STRESS PERIOD 356


 PROCESSING STORAGE PERIOD DATA
 END PROCESSING STORAGE PERIOD DATA


 STRESS PERIOD 356 IS TRANSIENT


 REUSING DRNS FROM LAST STRESS PERIOD

 REUSING RIVS FROM LAST STRESS PERIOD

 REUSING RIVS FROM LAST STRESS PERIOD

 REUSING RCHS FROM LAST STRESS PERIOD
 UBDSV06 SAVING              DRN IN MODEL GWF_1            PACKAGE GWF_1           CONNECTED TO MODEL GWF_1            PACKAGE DRN_SYS1         ON UNIT   1018 AT TIME STEP      1, STRESS PERIOD    356
 UBDSV06 SAVING              RIV IN MODEL GWF_1            PACKAGE GWF_1           CONNECTED TO MODEL GWF_1            PACKAGE RIV_SYS1         ON UNIT   1018 AT TIME STEP      1, STRESS PERIOD    356
 UBDSV06 SAVING              RIV IN MODEL GWF_1            PACKAGE GWF_1           CONNECTED TO MODEL GWF_1            PACKAGE RIV_SYS2         ON UNIT   1018 AT TIME STEP      1, STRESS PERIOD    356

 HEAD WILL BE SAVED ON UNIT 1017 AT END OF TIME STEP    1, STRESS PERIOD  356


  VOLUME BUDGET FOR ENTIRE MODEL AT END OF TIME STEP    1, STRESS PERIOD 356
  ---------------------------------------------------------------------------------------------------

     CUMULATIVE VOLUME      L**3       RATES FOR THIS TIME STEP      L**3/T          PACKAGE NAME    
     ------------------                 ------------------------                     ----------------

           IN:                                      IN:
           ---                                      ---
              STO-SS =      227438.2847                STO-SS =       4.9763E-05     STORAGE                          
                 DRN =           0.0000                   DRN =           0.0000     DRN_SYS1                         
                 RIV =      412866.6519                   RIV =        1275.8375     RIV_SYS1                         
                 RIV =           0.0000                   RIV =           0.0000     RIV_SYS2                         
                 RCH =           0.0000                   RCH =           0.0000     RCH_MSW                          

            TOTAL IN =      640304.9367              TOTAL IN =        1275.8375

          OUT:                                     OUT:
          ----                                     ----
              STO-SS =           0.0000                STO-SS =           0.0000     STORAGE                          
                 DRN =        8818.7120                   DRN =           9.3219     DRN_SYS1                         
                 RIV =      603552.8683                   RIV =        1226.8799     RIV_SYS1                         
                 RIV =       27935.0579                   RIV =          39.6358     RIV_SYS2                         
                 RCH =           0.0000                   RCH =           0.0000     RCH_MSW                          

           TOTAL OUT =      640306.6382             TOTAL OUT =        1275.8375

            IN - OUT =          -1.7015              IN - OUT =      -1.2806E-06

 PERCENT DISCREPANCY =          -0.00     PERCENT DISCREPANCY =          -0.00




         TIME SUMMARY AT END OF TIME STEP    1 IN STRESS PERIOD  356
                    SECONDS     MINUTES      HOURS       DAYS        YEARS
                    -----------------------------------------------------------
   TIME STEP LENGTH  86400.      1440.0      24.000      1.0000     2.73785E-03
 STRESS PERIOD TIME  86400.      1440.0      24.000      1.0000     2.73785E-03
         TOTAL TIME 3.07584E+07 5.12640E+05  8544.0      356.00     0.97467    


end timestep


start timestep kper="357" kstp="1" mode="normal"

 #Stressperiod Save Options

 BEGIN READING OUTPUT CONTROL FOR STRESS PERIOD 357
      ALL TIME STEPS WILL BE SAVED
      ALL TIME STEPS WILL BE SAVED

 END READING OUTPUT CONTROL FOR STRESS PERIOD 357


 PROCESSING STORAGE PERIOD DATA
 END PROCESSING STORAGE PERIOD DATA


 STRESS PERIOD 357 IS TRANSIENT


 REUSING DRNS FROM LAST STRESS PERIOD

 REUSING RIVS FROM LAST STRESS PERIOD

 REUSING RIVS FROM LAST STRESS PERIOD

 REUSING RCHS FROM LAST STRESS PERIOD
 UBDSV06 SAVING              DRN IN MODEL GWF_1            PACKAGE GWF_1           CONNECTED TO MODEL GWF_1            PACKAGE DRN_SYS1         ON UNIT   1018 AT TIME STEP      1, STRESS PERIOD    357
 UBDSV06 SAVING              RIV IN MODEL GWF_1            PACKAGE GWF_1           CONNECTED TO MODEL GWF_1            PACKAGE RIV_SYS1         ON UNIT   1018 AT TIME STEP      1, STRESS PERIOD    357
 UBDSV06 SAVING              RIV IN MODEL GWF_1            PACKAGE GWF_1           CONNECTED TO MODEL GWF_1            PACKAGE RIV_SYS2         ON UNIT   1018 AT TIME STEP      1, STRESS PERIOD    357

 HEAD WILL BE SAVED ON UNIT 1017 AT END OF TIME STEP    1, STRESS PERIOD  357


  VOLUME BUDGET FOR ENTIRE MODEL AT END OF TIME STEP    1, STRESS PERIOD 357
  ---------------------------------------------------------------------------------------------------

     CUMULATIVE VOLUME      L**3       RATES FOR THIS TIME STEP      L**3/T          PACKAGE NAME    
     ------------------                 ------------------------                     ----------------

           IN:                                      IN:
           ---                                      ---
              STO-SS =      227438.2848                STO-SS =       4.7124E-05     STORAGE                          
                 DRN =           0.0000                   DRN =           0.0000     DRN_SYS1                         
                 RIV =      414142.4894                   RIV =        1275.8375     RIV_SYS1                         
                 RIV =           0.0000                   RIV =           0.0000     RIV_SYS2                         
                 RCH =           0.0000                   RCH =           0.0000     RCH_MSW                          

            TOTAL IN =      641580.7742              TOTAL IN =        1275.8375

          OUT:                                     OUT:
          ----                                     ----
              STO-SS =           0.0000                STO-SS =           0.0000     STORAGE                          
                 DRN =        8828.0339                   DRN =           9.3219     DRN_SYS1                         
                 RIV =      604779.7482                   RIV =        1226.8799     RIV_SYS1                         
                 RIV =       27974.6937                   RIV =          39.6358     RIV_SYS2                         
                 RCH =           0.0000                   RCH =           0.0000     RCH_MSW                          

           TOTAL OUT =      641582.4757             TOTAL OUT =        1275.8375

            IN - OUT =          -1.7015              IN - OUT =      -1.2944E-06

 PERCENT DISCREPANCY =          -0.00     PERCENT DISCREPANCY =          -0.00




         TIME SUMMARY AT END OF TIME STEP    1 IN STRESS PERIOD  357
                    SECONDS     MINUTES      HOURS       DAYS        YEARS
                    -----------------------------------------------------------
   TIME STEP LENGTH  86400.      1440.0      24.000      1.0000     2.73785E-03
 STRESS PERIOD TIME  86400.      1440.0      24.000      1.0000     2.73785E-03
         TOTAL TIME 3.08448E+07 5.14080E+05  8568.0      357.00     0.97741    


end timestep


start timestep kper="358" kstp="1" mode="normal"

 #Stressperiod Save Options

 BEGIN READING OUTPUT CONTROL FOR STRESS PERIOD 358
      ALL TIME STEPS WILL BE SAVED
      ALL TIME STEPS WILL BE SAVED

 END READING OUTPUT CONTROL FOR STRESS PERIOD 358


 PROCESSING STORAGE PERIOD DATA
 END PROCESSING STORAGE PERIOD DATA


 STRESS PERIOD 358 IS TRANSIENT


 REUSING DRNS FROM LAST STRESS PERIOD

 REUSING RIVS FROM LAST STRESS PERIOD

 REUSING RIVS FROM LAST STRESS PERIOD

 REUSING RCHS FROM LAST STRESS PERIOD
 UBDSV06 SAVING              DRN IN MODEL GWF_1            PACKAGE GWF_1           CONNECTED TO MODEL GWF_1            PACKAGE DRN_SYS1         ON UNIT   1018 AT TIME STEP      1, STRESS PERIOD    358
 UBDSV06 SAVING              RIV IN MODEL GWF_1            PACKAGE GWF_1           CONNECTED TO MODEL GWF_1            PACKAGE RIV_SYS1         ON UNIT   1018 AT TIME STEP      1, STRESS PERIOD    358
 UBDSV06 SAVING              RIV IN MODEL GWF_1            PACKAGE GWF_1           CONNECTED TO MODEL GWF_1            PACKAGE RIV_SYS2         ON UNIT   1018 AT TIME STEP      1, STRESS PERIOD    358

 HEAD WILL BE SAVED ON UNIT 1017 AT END OF TIME STEP    1, STRESS PERIOD  358


  VOLUME BUDGET FOR ENTIRE MODEL AT END OF TIME STEP    1, STRESS PERIOD 358
  ---------------------------------------------------------------------------------------------------

     CUMULATIVE VOLUME      L**3       RATES FOR THIS TIME STEP      L**3/T          PACKAGE NAME    
     ------------------                 ------------------------                     ----------------

           IN:                                      IN:
           ---                                      ---
              STO-SS =      227438.2848                STO-SS =       4.4622E-05     STORAGE                          
                 DRN =           0.0000                   DRN =           0.0000     DRN_SYS1                         
                 RIV =      415418.3269                   RIV =        1275.8375     RIV_SYS1                         
                 RIV =           0.0000                   RIV =           0.0000     RIV_SYS2                         
                 RCH =           0.0000                   RCH =           0.0000     RCH_MSW                          

            TOTAL IN =      642856.6117              TOTAL IN =        1275.8375

          OUT:                                     OUT:
          ----                                     ----
              STO-SS =           0.0000                STO-SS =           0.0000     STORAGE                          
                 DRN =        8837.3558                   DRN =           9.3219     DRN_SYS1                         
                 RIV =      606006.6280                   RIV =        1226.8799     RIV_SYS1                         
                 RIV =       28014.3295                   RIV =          39.6358     RIV_SYS2                         
                 RCH =           0.0000                   RCH =           0.0000     RCH_MSW                          

           TOTAL OUT =      642858.3133             TOTAL OUT =        1275.8375

            IN - OUT =          -1.7015              IN - OUT =      -1.3115E-06

 PERCENT DISCREPANCY =          -0.00     PERCENT DISCREPANCY =          -0.00




         TIME SUMMARY AT END OF TIME STEP    1 IN STRESS PERIOD  358
                    SECONDS     MINUTES      HOURS       DAYS        YEARS
                    -----------------------------------------------------------
   TIME STEP LENGTH  86400.      1440.0      24.000      1.0000     2.73785E-03
 STRESS PERIOD TIME  86400.      1440.0      24.000      1.0000     2.73785E-03
         TOTAL TIME 3.09312E+07 5.15520E+05  8592.0      358.00     0.98015    


end timestep


start timestep kper="359" kstp="1" mode="normal"

 #Stressperiod Save Options

 BEGIN READING OUTPUT CONTROL FOR STRESS PERIOD 359
      ALL TIME STEPS WILL BE SAVED
      ALL TIME STEPS WILL BE SAVED

 END READING OUTPUT CONTROL FOR STRESS PERIOD 359


 PROCESSING STORAGE PERIOD DATA
 END PROCESSING STORAGE PERIOD DATA


 STRESS PERIOD 359 IS TRANSIENT


 REUSING DRNS FROM LAST STRESS PERIOD

 REUSING RIVS FROM LAST STRESS PERIOD

 REUSING RIVS FROM LAST STRESS PERIOD

 REUSING RCHS FROM LAST STRESS PERIOD
 UBDSV06 SAVING              DRN IN MODEL GWF_1            PACKAGE GWF_1           CONNECTED TO MODEL GWF_1            PACKAGE DRN_SYS1         ON UNIT   1018 AT TIME STEP      1, STRESS PERIOD    359
 UBDSV06 SAVING              RIV IN MODEL GWF_1            PACKAGE GWF_1           CONNECTED TO MODEL GWF_1            PACKAGE RIV_SYS1         ON UNIT   1018 AT TIME STEP      1, STRESS PERIOD    359
 UBDSV06 SAVING              RIV IN MODEL GWF_1            PACKAGE GWF_1           CONNECTED TO MODEL GWF_1            PACKAGE RIV_SYS2         ON UNIT   1018 AT TIME STEP      1, STRESS PERIOD    359

 HEAD WILL BE SAVED ON UNIT 1017 AT END OF TIME STEP    1, STRESS PERIOD  359


  VOLUME BUDGET FOR ENTIRE MODEL AT END OF TIME STEP    1, STRESS PERIOD 359
  ---------------------------------------------------------------------------------------------------

     CUMULATIVE VOLUME      L**3       RATES FOR THIS TIME STEP      L**3/T          PACKAGE NAME    
     ------------------                 ------------------------                     ----------------

           IN:                                      IN:
           ---                                      ---
              STO-SS =      227438.2849                STO-SS =       4.2249E-05     STORAGE                          
                 DRN =           0.0000                   DRN =           0.0000     DRN_SYS1                         
                 RIV =      416694.1643                   RIV =        1275.8375     RIV_SYS1                         
                 RIV =           0.0000                   RIV =           0.0000     RIV_SYS2                         
                 RCH =           0.0000                   RCH =           0.0000     RCH_MSW                          

            TOTAL IN =      644132.4492              TOTAL IN =        1275.8375

          OUT:                                     OUT:
          ----                                     ----
              STO-SS =           0.0000                STO-SS =           0.0000     STORAGE                          
                 DRN =        8846.6777                   DRN =           9.3219     DRN_SYS1                         
                 RIV =      607233.5079                   RIV =        1226.8798     RIV_SYS1                         
                 RIV =       28053.9653                   RIV =          39.6358     RIV_SYS2                         
                 RCH =           0.0000                   RCH =           0.0000     RCH_MSW                          

           TOTAL OUT =      644134.1508             TOTAL OUT =        1275.8375

            IN - OUT =          -1.7015              IN - OUT =      -1.3319E-06

 PERCENT DISCREPANCY =          -0.00     PERCENT DISCREPANCY =          -0.00




         TIME SUMMARY AT END OF TIME STEP    1 IN STRESS PERIOD  359
                    SECONDS     MINUTES      HOURS       DAYS        YEARS
                    -----------------------------------------------------------
   TIME STEP LENGTH  86400.      1440.0      24.000      1.0000     2.73785E-03
 STRESS PERIOD TIME  86400.      1440.0      24.000      1.0000     2.73785E-03
         TOTAL TIME 3.10176E+07 5.16960E+05  8616.0      359.00     0.98289    


end timestep


start timestep kper="360" kstp="1" mode="normal"

 #Stressperiod Save Options

 BEGIN READING OUTPUT CONTROL FOR STRESS PERIOD 360
      ALL TIME STEPS WILL BE SAVED
      ALL TIME STEPS WILL BE SAVED

 END READING OUTPUT CONTROL FOR STRESS PERIOD 360


 PROCESSING STORAGE PERIOD DATA
 END PROCESSING STORAGE PERIOD DATA


 STRESS PERIOD 360 IS TRANSIENT


 REUSING DRNS FROM LAST STRESS PERIOD

 REUSING RIVS FROM LAST STRESS PERIOD

 REUSING RIVS FROM LAST STRESS PERIOD

 REUSING RCHS FROM LAST STRESS PERIOD
 UBDSV06 SAVING              DRN IN MODEL GWF_1            PACKAGE GWF_1           CONNECTED TO MODEL GWF_1            PACKAGE DRN_SYS1         ON UNIT   1018 AT TIME STEP      1, STRESS PERIOD    360
 UBDSV06 SAVING              RIV IN MODEL GWF_1            PACKAGE GWF_1           CONNECTED TO MODEL GWF_1            PACKAGE RIV_SYS1         ON UNIT   1018 AT TIME STEP      1, STRESS PERIOD    360
 UBDSV06 SAVING              RIV IN MODEL GWF_1            PACKAGE GWF_1           CONNECTED TO MODEL GWF_1            PACKAGE RIV_SYS2         ON UNIT   1018 AT TIME STEP      1, STRESS PERIOD    360

 HEAD WILL BE SAVED ON UNIT 1017 AT END OF TIME STEP    1, STRESS PERIOD  360


  VOLUME BUDGET FOR ENTIRE MODEL AT END OF TIME STEP    1, STRESS PERIOD 360
  ---------------------------------------------------------------------------------------------------

     CUMULATIVE VOLUME      L**3       RATES FOR THIS TIME STEP      L**3/T          PACKAGE NAME    
     ------------------                 ------------------------                     ----------------

           IN:                                      IN:
           ---                                      ---
              STO-SS =      227438.2849                STO-SS =       3.9997E-05     STORAGE                          
                 DRN =           0.0000                   DRN =           0.0000     DRN_SYS1                         
                 RIV =      417970.0018                   RIV =        1275.8375     RIV_SYS1                         
                 RIV =           0.0000                   RIV =           0.0000     RIV_SYS2                         
                 RCH =           0.0000                   RCH =           0.0000     RCH_MSW                          

            TOTAL IN =      645408.2867              TOTAL IN =        1275.8375

          OUT:                                     OUT:
          ----                                     ----
              STO-SS =           0.0000                STO-SS =           0.0000     STORAGE                          
                 DRN =        8855.9995                   DRN =           9.3219     DRN_SYS1                         
                 RIV =      608460.3877                   RIV =        1226.8798     RIV_SYS1                         
                 RIV =       28093.6010                   RIV =          39.6358     RIV_SYS2                         
                 RCH =           0.0000                   RCH =           0.0000     RCH_MSW                          

           TOTAL OUT =      645409.9883             TOTAL OUT =        1275.8375

            IN - OUT =          -1.7015              IN - OUT =      -1.3556E-06

 PERCENT DISCREPANCY =          -0.00     PERCENT DISCREPANCY =          -0.00




         TIME SUMMARY AT END OF TIME STEP    1 IN STRESS PERIOD  360
                    SECONDS     MINUTES      HOURS       DAYS        YEARS
                    -----------------------------------------------------------
   TIME STEP LENGTH  86400.      1440.0      24.000      1.0000     2.73785E-03
 STRESS PERIOD TIME  86400.      1440.0      24.000      1.0000     2.73785E-03
         TOTAL TIME 3.11040E+07 5.18400E+05  8640.0      360.00     0.98563    


end timestep


start timestep kper="361" kstp="1" mode="normal"

 #Stressperiod Save Options

 BEGIN READING OUTPUT CONTROL FOR STRESS PERIOD 361
      ALL TIME STEPS WILL BE SAVED
      ALL TIME STEPS WILL BE SAVED

 END READING OUTPUT CONTROL FOR STRESS PERIOD 361


 PROCESSING STORAGE PERIOD DATA
 END PROCESSING STORAGE PERIOD DATA


 STRESS PERIOD 361 IS TRANSIENT


 REUSING DRNS FROM LAST STRESS PERIOD

 REUSING RIVS FROM LAST STRESS PERIOD

 REUSING RIVS FROM LAST STRESS PERIOD

 REUSING RCHS FROM LAST STRESS PERIOD
 UBDSV06 SAVING              DRN IN MODEL GWF_1            PACKAGE GWF_1           CONNECTED TO MODEL GWF_1            PACKAGE DRN_SYS1         ON UNIT   1018 AT TIME STEP      1, STRESS PERIOD    361
 UBDSV06 SAVING              RIV IN MODEL GWF_1            PACKAGE GWF_1           CONNECTED TO MODEL GWF_1            PACKAGE RIV_SYS1         ON UNIT   1018 AT TIME STEP      1, STRESS PERIOD    361
 UBDSV06 SAVING              RIV IN MODEL GWF_1            PACKAGE GWF_1           CONNECTED TO MODEL GWF_1            PACKAGE RIV_SYS2         ON UNIT   1018 AT TIME STEP      1, STRESS PERIOD    361

 HEAD WILL BE SAVED ON UNIT 1017 AT END OF TIME STEP    1, STRESS PERIOD  361


  VOLUME BUDGET FOR ENTIRE MODEL AT END OF TIME STEP    1, STRESS PERIOD 361
  ---------------------------------------------------------------------------------------------------

     CUMULATIVE VOLUME      L**3       RATES FOR THIS TIME STEP      L**3/T          PACKAGE NAME    
     ------------------                 ------------------------                     ----------------

           IN:                                      IN:
           ---                                      ---
              STO-SS =      227438.2850                STO-SS =       3.7862E-05     STORAGE                          
                 DRN =           0.0000                   DRN =           0.0000     DRN_SYS1                         
                 RIV =      419245.8393                   RIV =        1275.8375     RIV_SYS1                         
                 RIV =           0.0000                   RIV =           0.0000     RIV_SYS2                         
                 RCH =           0.0000                   RCH =           0.0000     RCH_MSW                          

            TOTAL IN =      646684.1242              TOTAL IN =        1275.8375

          OUT:                                     OUT:
          ----                                     ----
              STO-SS =           0.0000                STO-SS =           0.0000     STORAGE                          
                 DRN =        8865.3214                   DRN =           9.3219     DRN_SYS1                         
                 RIV =      609687.2676                   RIV =        1226.8798     RIV_SYS1                         
                 RIV =       28133.2368                   RIV =          39.6358     RIV_SYS2                         
                 RCH =           0.0000                   RCH =           0.0000     RCH_MSW                          

           TOTAL OUT =      646685.8258             TOTAL OUT =        1275.8375

            IN - OUT =          -1.7015              IN - OUT =      -1.3824E-06

 PERCENT DISCREPANCY =          -0.00     PERCENT DISCREPANCY =          -0.00




         TIME SUMMARY AT END OF TIME STEP    1 IN STRESS PERIOD  361
                    SECONDS     MINUTES      HOURS       DAYS        YEARS
                    -----------------------------------------------------------
   TIME STEP LENGTH  86400.      1440.0      24.000      1.0000     2.73785E-03
 STRESS PERIOD TIME  86400.      1440.0      24.000      1.0000     2.73785E-03
         TOTAL TIME 3.11904E+07 5.19840E+05  8664.0      361.00     0.98836    


end timestep


start timestep kper="362" kstp="1" mode="normal"

 #Stressperiod Save Options

 BEGIN READING OUTPUT CONTROL FOR STRESS PERIOD 362
      ALL TIME STEPS WILL BE SAVED
      ALL TIME STEPS WILL BE SAVED

 END READING OUTPUT CONTROL FOR STRESS PERIOD 362


 PROCESSING STORAGE PERIOD DATA
 END PROCESSING STORAGE PERIOD DATA


 STRESS PERIOD 362 IS TRANSIENT


 REUSING DRNS FROM LAST STRESS PERIOD

 REUSING RIVS FROM LAST STRESS PERIOD

 REUSING RIVS FROM LAST STRESS PERIOD

 REUSING RCHS FROM LAST STRESS PERIOD
 UBDSV06 SAVING              DRN IN MODEL GWF_1            PACKAGE GWF_1           CONNECTED TO MODEL GWF_1            PACKAGE DRN_SYS1         ON UNIT   1018 AT TIME STEP      1, STRESS PERIOD    362
 UBDSV06 SAVING              RIV IN MODEL GWF_1            PACKAGE GWF_1           CONNECTED TO MODEL GWF_1            PACKAGE RIV_SYS1         ON UNIT   1018 AT TIME STEP      1, STRESS PERIOD    362
 UBDSV06 SAVING              RIV IN MODEL GWF_1            PACKAGE GWF_1           CONNECTED TO MODEL GWF_1            PACKAGE RIV_SYS2         ON UNIT   1018 AT TIME STEP      1, STRESS PERIOD    362

 HEAD WILL BE SAVED ON UNIT 1017 AT END OF TIME STEP    1, STRESS PERIOD  362


  VOLUME BUDGET FOR ENTIRE MODEL AT END OF TIME STEP    1, STRESS PERIOD 362
  ---------------------------------------------------------------------------------------------------

     CUMULATIVE VOLUME      L**3       RATES FOR THIS TIME STEP      L**3/T          PACKAGE NAME    
     ------------------                 ------------------------                     ----------------

           IN:                                      IN:
           ---                                      ---
              STO-SS =      227438.2850                STO-SS =       3.5836E-05     STORAGE                          
                 DRN =           0.0000                   DRN =           0.0000     DRN_SYS1                         
                 RIV =      420521.6768                   RIV =        1275.8375     RIV_SYS1                         
                 RIV =           0.0000                   RIV =           0.0000     RIV_SYS2                         
                 RCH =           0.0000                   RCH =           0.0000     RCH_MSW                          

            TOTAL IN =      647959.9618              TOTAL IN =        1275.8375

          OUT:                                     OUT:
          ----                                     ----
              STO-SS =           0.0000                STO-SS =           0.0000     STORAGE                          
                 DRN =        8874.6433                   DRN =           9.3219     DRN_SYS1                         
                 RIV =      610914.1474                   RIV =        1226.8798     RIV_SYS1                         
                 RIV =       28172.8726                   RIV =          39.6358     RIV_SYS2                         
                 RCH =           0.0000                   RCH =           0.0000     RCH_MSW                          

           TOTAL OUT =      647961.6633             TOTAL OUT =        1275.8375

            IN - OUT =          -1.7015              IN - OUT =      -1.4127E-06

 PERCENT DISCREPANCY =          -0.00     PERCENT DISCREPANCY =          -0.00




         TIME SUMMARY AT END OF TIME STEP    1 IN STRESS PERIOD  362
                    SECONDS     MINUTES      HOURS       DAYS        YEARS
                    -----------------------------------------------------------
   TIME STEP LENGTH  86400.      1440.0      24.000      1.0000     2.73785E-03
 STRESS PERIOD TIME  86400.      1440.0      24.000      1.0000     2.73785E-03
         TOTAL TIME 3.12768E+07 5.21280E+05  8688.0      362.00     0.99110    


end timestep


start timestep kper="363" kstp="1" mode="normal"

 #Stressperiod Save Options

 BEGIN READING OUTPUT CONTROL FOR STRESS PERIOD 363
      ALL TIME STEPS WILL BE SAVED
      ALL TIME STEPS WILL BE SAVED

 END READING OUTPUT CONTROL FOR STRESS PERIOD 363


 PROCESSING STORAGE PERIOD DATA
 END PROCESSING STORAGE PERIOD DATA


 STRESS PERIOD 363 IS TRANSIENT


 REUSING DRNS FROM LAST STRESS PERIOD

 REUSING RIVS FROM LAST STRESS PERIOD

 REUSING RIVS FROM LAST STRESS PERIOD

 REUSING RCHS FROM LAST STRESS PERIOD
 UBDSV06 SAVING              DRN IN MODEL GWF_1            PACKAGE GWF_1           CONNECTED TO MODEL GWF_1            PACKAGE DRN_SYS1         ON UNIT   1018 AT TIME STEP      1, STRESS PERIOD    363
 UBDSV06 SAVING              RIV IN MODEL GWF_1            PACKAGE GWF_1           CONNECTED TO MODEL GWF_1            PACKAGE RIV_SYS1         ON UNIT   1018 AT TIME STEP      1, STRESS PERIOD    363
 UBDSV06 SAVING              RIV IN MODEL GWF_1            PACKAGE GWF_1           CONNECTED TO MODEL GWF_1            PACKAGE RIV_SYS2         ON UNIT   1018 AT TIME STEP      1, STRESS PERIOD    363

 HEAD WILL BE SAVED ON UNIT 1017 AT END OF TIME STEP    1, STRESS PERIOD  363


  VOLUME BUDGET FOR ENTIRE MODEL AT END OF TIME STEP    1, STRESS PERIOD 363
  ---------------------------------------------------------------------------------------------------

     CUMULATIVE VOLUME      L**3       RATES FOR THIS TIME STEP      L**3/T          PACKAGE NAME    
     ------------------                 ------------------------                     ----------------

           IN:                                      IN:
           ---                                      ---
              STO-SS =      227438.2850                STO-SS =       3.3914E-05     STORAGE                          
                 DRN =           0.0000                   DRN =           0.0000     DRN_SYS1                         
                 RIV =      421797.5142                   RIV =        1275.8375     RIV_SYS1                         
                 RIV =           0.0000                   RIV =           0.0000     RIV_SYS2                         
                 RCH =           0.0000                   RCH =           0.0000     RCH_MSW                          

            TOTAL IN =      649235.7993              TOTAL IN =        1275.8375

          OUT:                                     OUT:
          ----                                     ----
              STO-SS =           0.0000                STO-SS =           0.0000     STORAGE                          
                 DRN =        8883.9652                   DRN =           9.3219     DRN_SYS1                         
                 RIV =      612141.0272                   RIV =        1226.8798     RIV_SYS1                         
                 RIV =       28212.5084                   RIV =          39.6358     RIV_SYS2                         
                 RCH =           0.0000                   RCH =           0.0000     RCH_MSW                          

           TOTAL OUT =      649237.5008             TOTAL OUT =        1275.8375

            IN - OUT =          -1.7015              IN - OUT =      -1.4460E-06

 PERCENT DISCREPANCY =          -0.00     PERCENT DISCREPANCY =          -0.00




         TIME SUMMARY AT END OF TIME STEP    1 IN STRESS PERIOD  363
                    SECONDS     MINUTES      HOURS       DAYS        YEARS
                    -----------------------------------------------------------
   TIME STEP LENGTH  86400.      1440.0      24.000      1.0000     2.73785E-03
 STRESS PERIOD TIME  86400.      1440.0      24.000      1.0000     2.73785E-03
         TOTAL TIME 3.13632E+07 5.22720E+05  8712.0      363.00     0.99384    


end timestep


start timestep kper="364" kstp="1" mode="normal"

 #Stressperiod Save Options

 BEGIN READING OUTPUT CONTROL FOR STRESS PERIOD 364
      ALL TIME STEPS WILL BE SAVED
      ALL TIME STEPS WILL BE SAVED

 END READING OUTPUT CONTROL FOR STRESS PERIOD 364


 PROCESSING STORAGE PERIOD DATA
 END PROCESSING STORAGE PERIOD DATA


 STRESS PERIOD 364 IS TRANSIENT


 REUSING DRNS FROM LAST STRESS PERIOD

 REUSING RIVS FROM LAST STRESS PERIOD

 REUSING RIVS FROM LAST STRESS PERIOD

 REUSING RCHS FROM LAST STRESS PERIOD
 UBDSV06 SAVING              DRN IN MODEL GWF_1            PACKAGE GWF_1           CONNECTED TO MODEL GWF_1            PACKAGE DRN_SYS1         ON UNIT   1018 AT TIME STEP      1, STRESS PERIOD    364
 UBDSV06 SAVING              RIV IN MODEL GWF_1            PACKAGE GWF_1           CONNECTED TO MODEL GWF_1            PACKAGE RIV_SYS1         ON UNIT   1018 AT TIME STEP      1, STRESS PERIOD    364
 UBDSV06 SAVING              RIV IN MODEL GWF_1            PACKAGE GWF_1           CONNECTED TO MODEL GWF_1            PACKAGE RIV_SYS2         ON UNIT   1018 AT TIME STEP      1, STRESS PERIOD    364

 HEAD WILL BE SAVED ON UNIT 1017 AT END OF TIME STEP    1, STRESS PERIOD  364


  VOLUME BUDGET FOR ENTIRE MODEL AT END OF TIME STEP    1, STRESS PERIOD 364
  ---------------------------------------------------------------------------------------------------

     CUMULATIVE VOLUME      L**3       RATES FOR THIS TIME STEP      L**3/T          PACKAGE NAME    
     ------------------                 ------------------------                     ----------------

           IN:                                      IN:
           ---                                      ---
              STO-SS =      227438.2851                STO-SS =       3.2090E-05     STORAGE                          
                 DRN =           0.0000                   DRN =           0.0000     DRN_SYS1                         
                 RIV =      423073.3517                   RIV =        1275.8375     RIV_SYS1                         
                 RIV =           0.0000                   RIV =           0.0000     RIV_SYS2                         
                 RCH =           0.0000                   RCH =           0.0000     RCH_MSW                          

            TOTAL IN =      650511.6368              TOTAL IN =        1275.8375

          OUT:                                     OUT:
          ----                                     ----
              STO-SS =           0.0000                STO-SS =           0.0000     STORAGE                          
                 DRN =        8893.2871                   DRN =           9.3219     DRN_SYS1                         
                 RIV =      613367.9071                   RIV =        1226.8798     RIV_SYS1                         
                 RIV =       28252.1441                   RIV =          39.6358     RIV_SYS2                         
                 RCH =           0.0000                   RCH =           0.0000     RCH_MSW                          

           TOTAL OUT =      650513.3383             TOTAL OUT =        1275.8375

            IN - OUT =          -1.7015              IN - OUT =      -1.4825E-06

 PERCENT DISCREPANCY =          -0.00     PERCENT DISCREPANCY =          -0.00




         TIME SUMMARY AT END OF TIME STEP    1 IN STRESS PERIOD  364
                    SECONDS     MINUTES      HOURS       DAYS        YEARS
                    -----------------------------------------------------------
   TIME STEP LENGTH  86400.      1440.0      24.000      1.0000     2.73785E-03
 STRESS PERIOD TIME  86400.      1440.0      24.000      1.0000     2.73785E-03
         TOTAL TIME 3.14496E+07 5.24160E+05  8736.0      364.00     0.99658    


end timestep


start timestep kper="365" kstp="1" mode="normal"

 #Stressperiod Save Options

 BEGIN READING OUTPUT CONTROL FOR STRESS PERIOD 365
      ALL TIME STEPS WILL BE SAVED
      ALL TIME STEPS WILL BE SAVED

 END READING OUTPUT CONTROL FOR STRESS PERIOD 365


 PROCESSING STORAGE PERIOD DATA
 END PROCESSING STORAGE PERIOD DATA


 STRESS PERIOD 365 IS TRANSIENT


 REUSING DRNS FROM LAST STRESS PERIOD

 REUSING RIVS FROM LAST STRESS PERIOD

 REUSING RIVS FROM LAST STRESS PERIOD

 REUSING RCHS FROM LAST STRESS PERIOD
 UBDSV06 SAVING              DRN IN MODEL GWF_1            PACKAGE GWF_1           CONNECTED TO MODEL GWF_1            PACKAGE DRN_SYS1         ON UNIT   1018 AT TIME STEP      1, STRESS PERIOD    365
 UBDSV06 SAVING              RIV IN MODEL GWF_1            PACKAGE GWF_1           CONNECTED TO MODEL GWF_1            PACKAGE RIV_SYS1         ON UNIT   1018 AT TIME STEP      1, STRESS PERIOD    365
 UBDSV06 SAVING              RIV IN MODEL GWF_1            PACKAGE GWF_1           CONNECTED TO MODEL GWF_1            PACKAGE RIV_SYS2         ON UNIT   1018 AT TIME STEP      1, STRESS PERIOD    365

 HEAD WILL BE SAVED ON UNIT 1017 AT END OF TIME STEP    1, STRESS PERIOD  365


  VOLUME BUDGET FOR ENTIRE MODEL AT END OF TIME STEP    1, STRESS PERIOD 365
  ---------------------------------------------------------------------------------------------------

     CUMULATIVE VOLUME      L**3       RATES FOR THIS TIME STEP      L**3/T          PACKAGE NAME    
     ------------------                 ------------------------                     ----------------

           IN:                                      IN:
           ---                                      ---
              STO-SS =      227438.2851                STO-SS =       3.0359E-05     STORAGE                          
                 DRN =           0.0000                   DRN =           0.0000     DRN_SYS1                         
                 RIV =      424349.1892                   RIV =        1275.8375     RIV_SYS1                         
                 RIV =           0.0000                   RIV =           0.0000     RIV_SYS2                         
                 RCH =           0.0000                   RCH =           0.0000     RCH_MSW                          

            TOTAL IN =      651787.4743              TOTAL IN =        1275.8375

          OUT:                                     OUT:
          ----                                     ----
              STO-SS =           0.0000                STO-SS =           0.0000     STORAGE                          
                 DRN =        8902.6090                   DRN =           9.3219     DRN_SYS1                         
                 RIV =      614594.7869                   RIV =        1226.8798     RIV_SYS1                         
                 RIV =       28291.7799                   RIV =          39.6358     RIV_SYS2                         
                 RCH =           0.0000                   RCH =           0.0000     RCH_MSW                          

           TOTAL OUT =      651789.1758             TOTAL OUT =        1275.8375

            IN - OUT =          -1.7016              IN - OUT =      -1.5221E-06

 PERCENT DISCREPANCY =          -0.00     PERCENT DISCREPANCY =          -0.00




         TIME SUMMARY AT END OF TIME STEP    1 IN STRESS PERIOD  365
                    SECONDS     MINUTES      HOURS       DAYS        YEARS
                    -----------------------------------------------------------
   TIME STEP LENGTH  86400.      1440.0      24.000      1.0000     2.73785E-03
 STRESS PERIOD TIME  86400.      1440.0      24.000      1.0000     2.73785E-03
         TOTAL TIME 3.15360E+07 5.25600E+05  8760.0      365.00     0.99932    


end timestep

