                                   MODFLOW 6
                U.S. GEOLOGICAL SURVEY MODULAR HYDROLOGIC MODEL
                          GROUNDWATER FLOW MODEL (GWF)
                            VERSION 6.3.0 03/04/2022

   MODFLOW 6 compiled Jun 27 2022 11:13:48 with Intel(R) Fortran Intel(R) 64
   Compiler Classic for applications running on Intel(R) 64, Version 2021.2.0
                             Build 20210228_000000

This software has been approved for release by the U.S. Geological 
Survey (USGS). Although the software has been subjected to rigorous 
review, the USGS reserves the right to update the software as needed 
pursuant to further analysis and review. No warranty, expressed or 
implied, is made by the USGS or the U.S. Government as to the 
functionality of the software and related material nor shall the 
fact of release constitute any such warranty. Furthermore, the 
software is released on condition that neither the USGS nor the U.S. 
Government shall be held liable for any damages resulting from its 
authorized or unauthorized use. Also refer to the USGS Water 
Resources Software User Rights Notice for complete use, copyright, 
and distribution information.


As a work of the United States Government, this USGS product is 
in the public domain within the United States. You can copy, 
modify, distribute, and perform the work, even for commercial 
purposes, all without asking permission. Additionally, USGS 
waives copyright and related rights in the work worldwide 
through CC0 1.0 Universal Public Domain Dedication 
(https://creativecommons.org/publicdomain/zero/1.0/).

The following GNU Lesser General Public License (LGPL) libraries
are used in this USGS product:

    SPARSKIT version 2.0
      ilut, luson, and qsplit 
      (https://www-users.cse.umn.edu/~saad/software/SPARSKIT/)

    RCM - Reverse Cuthill McKee Ordering
      (https://people.math.sc.edu/Burkardt/f_src/rcm/rcm.html)

    BLAS - Basic Linear Algebra Subprograms Level 1
      (https://people.math.sc.edu/Burkardt/f_src/blas1_d/blas1_d.html)

    SPARSEKIT - Sparse Matrix Utility Package
      amux, dperm, dvperm, rperm, and cperm
      (https://people.sc.fsu.edu/~jburkardt/f77_src/sparsekit/sparsekit.html)

The following BSD-3 License libraries are used in this USGS product:

    Modern Fortran DAG Library
      Copyright (c) 2018, Jacob Williams
      All rights reserved.
      (https://github.com/jacobwilliams/daglib)

MODFLOW 6 compiler options: /Isrc\libmf6core.a.p /Isrc /I..\src
/Isrc\libmf6_external.a.p /MTd /nologo /warn:general /warn:truncated_source
/stand:f08 /Zi /traceback /O2 /fpe:0 /fpp /Qdiag-disable:7416
/Qdiag-disable:7025 /Qdiag-disable:5268
/Fdsrc\libmf6core.a.p\Utilities_compilerversion.F90.pdb
/module:src\libmf6core.a.p
/Fosrc/libmf6core.a.p/Utilities_compilerversion.F90.obj /c

System command used to initiate simulation:
c:\werkmap\test_freatisch\Testmodel-plateaurand\Testmodel-plateaurand\EXE\iMOD_coupler\imodc.exe      tmodel_mf6\T-MODEL-F\imod_coupler.toml

MODFLOW was compiled using uniform precision.

Real Variables
  KIND: 8
  TINY (smallest non-zero value):    2.225074-308
  HUGE (largest value):    1.797693+308
  PRECISION: 15
  BIT SIZE: 64

Integer Variables
  KIND: 4
  HUGE (largest value): 2147483647
  BIT SIZE: 32

Long Integer Variables
  KIND: 8
  HUGE (largest value): 9223372036854775807
  BIT SIZE: 64

Logical Variables
  KIND: 4
  BIT SIZE: 32
 

 OPENED .\GWF_1\MODELINPUT\T-MODEL-F.DIS6
 FILE TYPE:DIS6                   UNIT 1005   STATUS:OLD                 
 FORMAT:FORMATTED              ACCESS:SEQUENTIAL          
 ACTION:READ                


 OPENED .\GWF_1\MODELINPUT\T-MODEL-F.IC6
 FILE TYPE:IC6                    UNIT 1006   STATUS:OLD                 
 FORMAT:FORMATTED              ACCESS:SEQUENTIAL          
 ACTION:READ                


 OPENED .\GWF_1\MODELINPUT\T-MODEL-F.NPF6
 FILE TYPE:NPF6                   UNIT 1007   STATUS:OLD                 
 FORMAT:FORMATTED              ACCESS:SEQUENTIAL          
 ACTION:READ                


 OPENED .\GWF_1\MODELINPUT\T-MODEL-F.OC6
 FILE TYPE:OC6                    UNIT 1008   STATUS:OLD                 
 FORMAT:FORMATTED              ACCESS:SEQUENTIAL          
 ACTION:READ                


 OPENED .\GWF_1\MODELINPUT\T-MODEL-F.STO6
 FILE TYPE:STO6                   UNIT 1009   STATUS:OLD                 
 FORMAT:FORMATTED              ACCESS:SEQUENTIAL          
 ACTION:READ                


 OPENED .\GWF_1\MODELINPUT\T-MODEL-F_SYS1.DRN6
 FILE TYPE:DRN6                   UNIT 1010   STATUS:OLD                 
 FORMAT:FORMATTED              ACCESS:SEQUENTIAL          
 ACTION:READ                


 OPENED .\GWF_1\MODELINPUT\T-MODEL-F_SYS1.RIV6
 FILE TYPE:RIV6                   UNIT 1011   STATUS:OLD                 
 FORMAT:FORMATTED              ACCESS:SEQUENTIAL          
 ACTION:READ                


 OPENED .\GWF_1\MODELINPUT\T-MODEL-F_SYS2.RIV6
 FILE TYPE:RIV6                   UNIT 1012   STATUS:OLD                 
 FORMAT:FORMATTED              ACCESS:SEQUENTIAL          
 ACTION:READ                


 OPENED .\GWF_1\MODELINPUT\MSW.RCH6
 FILE TYPE:RCH6                   UNIT 1013   STATUS:OLD                 
 FORMAT:FORMATTED              ACCESS:SEQUENTIAL          
 ACTION:READ                


 DIS -- STRUCTURED GRID DISCRETIZATION PACKAGE, VERSION 2 : 3/27/2014 - INPUT READ FROM UNIT 1005


 # DIS6 File Generated by iMOD [V5_4 X64 Optimized]
 PROCESSING DISCRETIZATION OPTIONS
    MODEL LENGTH UNIT IS METERS
    XORIGIN SPECIFIED AS     0.00000000000000    
    YORIGIN SPECIFIED AS     0.00000000000000    
    ANGROT SPECIFIED AS     0.00000000000000    
 END OF DISCRETIZATION OPTIONS
 #Model Dimensions
 PROCESSING DISCRETIZATION DIMENSIONS
    NLAY =       1
    NROW =      11
    NCOL =      10
 END OF DISCRETIZATION DIMENSIONS
 #Cell Sizes
 PROCESSING GRIDDATA

                     DELR =   100.0000    

                     DELC =   100.0000    
 #Vertical Configuration

 TOP ELEVATION OF LAYER 1 =   0.000000    

   MODEL LAYER BOTTOM EL. =  -10.00000     FOR LAYER 1
 #Boundary Settings

 OPENED .\GWF_1\MODELINPUT\DIS6\IBOUND_L1.ARR
 FILE TYPE:OPEN/CLOSE   UNIT 1015   STATUS:OLD                 
 FORMAT:FORMATTED              ACCESS:SEQUENTIAL          
 ACTION:READ                

 END PROCESSING GRIDDATA

 NPF -- NODE PROPERTY FLOW PACKAGE, VERSION 1, 3/30/2015 INPUT READ FROM UNIT 1007


 # NPF6 File Generated by iMOD [V5_4 X64 Optimized]
 #General Options
 PROCESSING NPF OPTIONS
    ALTERNATIVE CELL AVERAGING HAS BEEN SET TO AMT-HMK
    CELL AVERAGING METHOD HAS BEEN SET TO: AMT-HMK                                                                                                                                                                                                                                                                                                     
 END OF NPF OPTIONS

 DRN   -- DRN PACKAGE, VERSION 8, 2/22/2014 INPUT READ FROM UNIT 1010
 # DRN6 File Generated by iMOD [V5_4 X64 Optimized]
 #General Options

 PROCESSING DRN OPTIONS
    FLOWS WILL BE SAVED TO BUDGET FILE SPECIFIED IN OUTPUT CONTROL
 END OF DRN OPTIONS
 #General Dimensions

 PROCESSING DRN DIMENSIONS
    MAXBOUND =       2
 END OF DRN DIMENSIONS

 RIV   -- RIV PACKAGE, VERSION 8, 2/22/2014 INPUT READ FROM UNIT 1011
 # RIV6 File Generated by iMOD [V5_4 X64 Optimized]
 #General Options

 PROCESSING RIV OPTIONS
    FLOWS WILL BE SAVED TO BUDGET FILE SPECIFIED IN OUTPUT CONTROL
 END OF RIV OPTIONS
 #General Dimensions

 PROCESSING RIV DIMENSIONS
    MAXBOUND =      55
 END OF RIV DIMENSIONS

 RIV   -- RIV PACKAGE, VERSION 8, 2/22/2014 INPUT READ FROM UNIT 1012
 # RIV6 File Generated by iMOD [V5_4 X64 Optimized]
 #General Options

 PROCESSING RIV OPTIONS
    FLOWS WILL BE SAVED TO BUDGET FILE SPECIFIED IN OUTPUT CONTROL
 END OF RIV OPTIONS
 #General Dimensions

 PROCESSING RIV DIMENSIONS
    MAXBOUND =       3
 END OF RIV DIMENSIONS

 RCH   -- RCH PACKAGE, VERSION 8, 2/22/2014 INPUT READ FROM UNIT 1013
 # RCH6 File Generated by iMOD [V5_4 X64 Optimized]
 #General Options

 PROCESSING RCH OPTIONS
    FLOWS WILL BE SAVED TO BUDGET FILE SPECIFIED IN OUTPUT CONTROL
 END OF RCH OPTIONS
 #General Dimensions

 PROCESSING RCH DIMENSIONS
    MAXBOUND =     110
 END OF RCH DIMENSIONS

 IC -- INITIAL CONDITIONS PACKAGE, VERSION 8, 3/28/2015 INPUT READ FROM UNIT 1006
 # IC6 File Generated by iMOD [V5_4 X64 Optimized]
 #General Options
 PROCESSING IC OPTIONS
 END OF IC OPTIONS
 #Initial Head Data
 PROCESSING GRIDDATA

     INITIAL HEAD =   10.00000     FOR LAYER 1
 END PROCESSING GRIDDATA
 #Geology Options
 PROCESSING GRIDDATA

                ICELLTYPE = 0 FOR LAYER 1

                        K =   100.0000     FOR LAYER 1

                      K33 =   1.000000     FOR LAYER 1
 K22 not provided.  Assuming K22 = K.
 END PROCESSING GRIDDATA

 STO -- STORAGE PACKAGE, VERSION 1, 5/19/2014 INPUT READ FROM UNIT 1009


 # STO6 File Generated by iMOD [V5_4 X64 Optimized]
 #General Options
 PROCESSING STORAGE OPTIONS
    STORAGECOEFFICIENT OPTION:
 Read storage coefficient rather than specific storage
 END OF STORAGE OPTIONS
 #Geology Options
 PROCESSING GRIDDATA

                 ICONVERT = 0 FOR LAYER 1

         SPECIFIC STORAGE =  0.1500000     FOR LAYER 1
 END PROCESSING GRIDDATA
    BINARY GRID INFORMATION WILL BE WRITTEN TO:
      UNIT NUMBER: 1016
      FILE NAME: c:\src\GW-sobek\workspace\lumbricustests\t-model_conversie_mf6\tmodel_mf6\T-MODEL-F\MODFLOW6\GWF_1\MODELINPUT\T-MODEL-F.DIS6.grb

 OPENED c:\src\GW-sobek\workspace\lumbricustests\t-model_conversie_mf6\tmodel_mf6\T-MODEL-F\MODFLOW6\GWF_1\MODELINPUT\T-MODEL-F.DIS6.grb
 FILE TYPE:DATA(BINARY)   UNIT 1016   STATUS:REPLACE             
 FORMAT:UNFORMATTED            ACCESS:STREAM              
 ACTION:READWRITE           

      THE LAST TIME STEP WILL BE PRINTED
      THE LAST TIME STEP WILL BE PRINTED
 # OC6 File Generated by iMOD [V5_4 X64 Optimized]
 #General Options

 PROCESSING OC OPTIONS

    HEAD INFORMATION WILL BE WRITTEN TO:
      UNIT NUMBER: 1017
      FILE NAME: .\GWF_1\MODELOUTPUT\HEAD\HEAD.HED

 OPENED .\GWF_1\MODELOUTPUT\HEAD\HEAD.HED
 FILE TYPE:DATA(BINARY)   UNIT 1017   STATUS:REPLACE             
 FORMAT:UNFORMATTED            ACCESS:STREAM              
 ACTION:READWRITE           

    BUDGET INFORMATION WILL BE WRITTEN TO:
      UNIT NUMBER: 1018
      FILE NAME: .\GWF_1\MODELOUTPUT\BUDGET\BUDGET.CBC

 OPENED .\GWF_1\MODELOUTPUT\BUDGET\BUDGET.CBC
 FILE TYPE:DATA(BINARY)   UNIT 1018   STATUS:REPLACE             
 FORMAT:UNFORMATTED            ACCESS:STREAM              
 ACTION:READWRITE           

 END OF OC OPTIONS

start timestep kper="1" kstp="1" mode="normal"

 #Stressperiod Save Options

 BEGIN READING OUTPUT CONTROL FOR STRESS PERIOD 1
      ALL TIME STEPS WILL BE SAVED
      ALL TIME STEPS WILL BE SAVED

 END READING OUTPUT CONTROL FOR STRESS PERIOD 1
 #Time Storage Options


 PROCESSING STORAGE PERIOD DATA
 END PROCESSING STORAGE PERIOD DATA


 STRESS PERIOD 1 IS TRANSIENT

 UBDSV06 SAVING              DRN IN MODEL GWF_1            PACKAGE GWF_1           CONNECTED TO MODEL GWF_1            PACKAGE DRN_SYS1         ON UNIT   1018 AT TIME STEP      1, STRESS PERIOD      1
 UBDSV06 SAVING              RIV IN MODEL GWF_1            PACKAGE GWF_1           CONNECTED TO MODEL GWF_1            PACKAGE RIV_SYS1         ON UNIT   1018 AT TIME STEP      1, STRESS PERIOD      1
 UBDSV06 SAVING              RIV IN MODEL GWF_1            PACKAGE GWF_1           CONNECTED TO MODEL GWF_1            PACKAGE RIV_SYS2         ON UNIT   1018 AT TIME STEP      1, STRESS PERIOD      1
 UBDSV06 SAVING              RCH IN MODEL GWF_1            PACKAGE GWF_1           CONNECTED TO MODEL GWF_1            PACKAGE RCH_MSW          ON UNIT   1018 AT TIME STEP      1, STRESS PERIOD      1

 HEAD WILL BE SAVED ON UNIT 1017 AT END OF TIME STEP    1, STRESS PERIOD    1


  VOLUME BUDGET FOR ENTIRE MODEL AT END OF TIME STEP    1, STRESS PERIOD   1
  ---------------------------------------------------------------------------------------------------

     CUMULATIVE VOLUME      L**3       RATES FOR THIS TIME STEP      L**3/T          PACKAGE NAME    
     ------------------                 ------------------------                     ----------------

           IN:                                      IN:
           ---                                      ---
              STO-SS =       25257.2159                STO-SS =       25257.2159     STORAGE                          
                 DRN =           0.0000                   DRN =           0.0000     DRN_SYS1                         
                 RIV =           0.0000                   RIV =           0.0000     RIV_SYS1                         
                 RIV =           0.0000                   RIV =           0.0000     RIV_SYS2                         
                 RCH =           0.0000                   RCH =           0.0000     RCH_MSW                          

            TOTAL IN =       25257.2159              TOTAL IN =       25257.2159

          OUT:                                     OUT:
          ----                                     ----
              STO-SS =           0.0000                STO-SS =           0.0000     STORAGE                          
                 DRN =         285.1699                   DRN =         285.1699     DRN_SYS1                         
                 RIV =       21723.7127                   RIV =       21723.7127     RIV_SYS1                         
                 RIV =         830.4297                   RIV =         830.4297     RIV_SYS2                         
                 RCH =        2417.6120                   RCH =        2417.6120     RCH_MSW                          

           TOTAL OUT =       25256.9243             TOTAL OUT =       25256.9243

            IN - OUT =           0.2916              IN - OUT =           0.2916

 PERCENT DISCREPANCY =           0.00     PERCENT DISCREPANCY =           0.00




         TIME SUMMARY AT END OF TIME STEP    1 IN STRESS PERIOD    1
                    SECONDS     MINUTES      HOURS       DAYS        YEARS
                    -----------------------------------------------------------
   TIME STEP LENGTH  86400.      1440.0      24.000      1.0000     2.73785E-03
 STRESS PERIOD TIME  86400.      1440.0      24.000      1.0000     2.73785E-03
         TOTAL TIME  86400.      1440.0      24.000      1.0000     2.73785E-03


end timestep


start timestep kper="2" kstp="1" mode="normal"

 #Stressperiod Save Options

 BEGIN READING OUTPUT CONTROL FOR STRESS PERIOD 2
      ALL TIME STEPS WILL BE SAVED
      ALL TIME STEPS WILL BE SAVED

 END READING OUTPUT CONTROL FOR STRESS PERIOD 2


 PROCESSING STORAGE PERIOD DATA
 END PROCESSING STORAGE PERIOD DATA


 STRESS PERIOD 2 IS TRANSIENT


 REUSING DRNS FROM LAST STRESS PERIOD

 REUSING RIVS FROM LAST STRESS PERIOD

 REUSING RIVS FROM LAST STRESS PERIOD

 REUSING RCHS FROM LAST STRESS PERIOD
 UBDSV06 SAVING              DRN IN MODEL GWF_1            PACKAGE GWF_1           CONNECTED TO MODEL GWF_1            PACKAGE DRN_SYS1         ON UNIT   1018 AT TIME STEP      1, STRESS PERIOD      2
 UBDSV06 SAVING              RIV IN MODEL GWF_1            PACKAGE GWF_1           CONNECTED TO MODEL GWF_1            PACKAGE RIV_SYS1         ON UNIT   1018 AT TIME STEP      1, STRESS PERIOD      2
 UBDSV06 SAVING              RIV IN MODEL GWF_1            PACKAGE GWF_1           CONNECTED TO MODEL GWF_1            PACKAGE RIV_SYS2         ON UNIT   1018 AT TIME STEP      1, STRESS PERIOD      2
 UBDSV06 SAVING              RCH IN MODEL GWF_1            PACKAGE GWF_1           CONNECTED TO MODEL GWF_1            PACKAGE RCH_MSW          ON UNIT   1018 AT TIME STEP      1, STRESS PERIOD      2

 HEAD WILL BE SAVED ON UNIT 1017 AT END OF TIME STEP    1, STRESS PERIOD    2


  VOLUME BUDGET FOR ENTIRE MODEL AT END OF TIME STEP    1, STRESS PERIOD   2
  ---------------------------------------------------------------------------------------------------

     CUMULATIVE VOLUME      L**3       RATES FOR THIS TIME STEP      L**3/T          PACKAGE NAME    
     ------------------                 ------------------------                     ----------------

           IN:                                      IN:
           ---                                      ---
              STO-SS =       41561.9683                STO-SS =       16304.7524     STORAGE                          
                 DRN =           0.0000                   DRN =           0.0000     DRN_SYS1                         
                 RIV =           0.0000                   RIV =           0.0000     RIV_SYS1                         
                 RIV =           0.0000                   RIV =           0.0000     RIV_SYS2                         
                 RCH =         626.5570                   RCH =         626.5570     RCH_MSW                          

            TOTAL IN =       42188.5254              TOTAL IN =       16931.3094

          OUT:                                     OUT:
          ----                                     ----
              STO-SS =           0.0000                STO-SS =           0.0000     STORAGE                          
                 DRN =         556.4135                   DRN =         271.2436     DRN_SYS1                         
                 RIV =       37065.8747                   RIV =       15342.1619     RIV_SYS1                         
                 RIV =        1606.4200                   RIV =         775.9903     RIV_SYS2                         
                 RCH =        2959.6429                   RCH =         542.0309     RCH_MSW                          

           TOTAL OUT =       42188.3510             TOTAL OUT =       16931.4268

            IN - OUT =           0.1743              IN - OUT =          -0.1173

 PERCENT DISCREPANCY =           0.00     PERCENT DISCREPANCY =          -0.00




         TIME SUMMARY AT END OF TIME STEP    1 IN STRESS PERIOD    2
                    SECONDS     MINUTES      HOURS       DAYS        YEARS
                    -----------------------------------------------------------
   TIME STEP LENGTH  86400.      1440.0      24.000      1.0000     2.73785E-03
 STRESS PERIOD TIME  86400.      1440.0      24.000      1.0000     2.73785E-03
         TOTAL TIME 1.72800E+05  2880.0      48.000      2.0000     5.47570E-03


end timestep


start timestep kper="3" kstp="1" mode="normal"

 #Stressperiod Save Options

 BEGIN READING OUTPUT CONTROL FOR STRESS PERIOD 3
      ALL TIME STEPS WILL BE SAVED
      ALL TIME STEPS WILL BE SAVED

 END READING OUTPUT CONTROL FOR STRESS PERIOD 3


 PROCESSING STORAGE PERIOD DATA
 END PROCESSING STORAGE PERIOD DATA


 STRESS PERIOD 3 IS TRANSIENT


 REUSING DRNS FROM LAST STRESS PERIOD

 REUSING RIVS FROM LAST STRESS PERIOD

 REUSING RIVS FROM LAST STRESS PERIOD

 REUSING RCHS FROM LAST STRESS PERIOD
 UBDSV06 SAVING              DRN IN MODEL GWF_1            PACKAGE GWF_1           CONNECTED TO MODEL GWF_1            PACKAGE DRN_SYS1         ON UNIT   1018 AT TIME STEP      1, STRESS PERIOD      3
 UBDSV06 SAVING              RIV IN MODEL GWF_1            PACKAGE GWF_1           CONNECTED TO MODEL GWF_1            PACKAGE RIV_SYS1         ON UNIT   1018 AT TIME STEP      1, STRESS PERIOD      3
 UBDSV06 SAVING              RIV IN MODEL GWF_1            PACKAGE GWF_1           CONNECTED TO MODEL GWF_1            PACKAGE RIV_SYS2         ON UNIT   1018 AT TIME STEP      1, STRESS PERIOD      3
 UBDSV06 SAVING              RCH IN MODEL GWF_1            PACKAGE GWF_1           CONNECTED TO MODEL GWF_1            PACKAGE RCH_MSW          ON UNIT   1018 AT TIME STEP      1, STRESS PERIOD      3

 HEAD WILL BE SAVED ON UNIT 1017 AT END OF TIME STEP    1, STRESS PERIOD    3


  VOLUME BUDGET FOR ENTIRE MODEL AT END OF TIME STEP    1, STRESS PERIOD   3
  ---------------------------------------------------------------------------------------------------

     CUMULATIVE VOLUME      L**3       RATES FOR THIS TIME STEP      L**3/T          PACKAGE NAME    
     ------------------                 ------------------------                     ----------------

           IN:                                      IN:
           ---                                      ---
              STO-SS =       53231.5632                STO-SS =       11669.5949     STORAGE                          
                 DRN =           0.0000                   DRN =           0.0000     DRN_SYS1                         
                 RIV =           0.0000                   RIV =           0.0000     RIV_SYS1                         
                 RIV =           0.0000                   RIV =           0.0000     RIV_SYS2                         
                 RCH =        2412.6417                   RCH =        1786.0847     RCH_MSW                          

            TOTAL IN =       55644.2049              TOTAL IN =       13455.6796

          OUT:                                     OUT:
          ----                                     ----
              STO-SS =           0.0000                STO-SS =           0.0000     STORAGE                          
                 DRN =         814.3309                   DRN =         257.9173     DRN_SYS1                         
                 RIV =       49303.2293                   RIV =       12237.3547     RIV_SYS1                         
                 RIV =        2333.9219                   RIV =         727.5019     RIV_SYS2                         
                 RCH =        3192.5818                   RCH =         232.9389     RCH_MSW                          

           TOTAL OUT =       55644.0639             TOTAL OUT =       13455.7128

            IN - OUT =           0.1411              IN - OUT =      -3.3266E-02

 PERCENT DISCREPANCY =           0.00     PERCENT DISCREPANCY =          -0.00




         TIME SUMMARY AT END OF TIME STEP    1 IN STRESS PERIOD    3
                    SECONDS     MINUTES      HOURS       DAYS        YEARS
                    -----------------------------------------------------------
   TIME STEP LENGTH  86400.      1440.0      24.000      1.0000     2.73785E-03
 STRESS PERIOD TIME  86400.      1440.0      24.000      1.0000     2.73785E-03
         TOTAL TIME 2.59200E+05  4320.0      72.000      3.0000     8.21355E-03


end timestep


start timestep kper="4" kstp="1" mode="normal"

 #Stressperiod Save Options

 BEGIN READING OUTPUT CONTROL FOR STRESS PERIOD 4
      ALL TIME STEPS WILL BE SAVED
      ALL TIME STEPS WILL BE SAVED

 END READING OUTPUT CONTROL FOR STRESS PERIOD 4


 PROCESSING STORAGE PERIOD DATA
 END PROCESSING STORAGE PERIOD DATA


 STRESS PERIOD 4 IS TRANSIENT


 REUSING DRNS FROM LAST STRESS PERIOD

 REUSING RIVS FROM LAST STRESS PERIOD

 REUSING RIVS FROM LAST STRESS PERIOD

 REUSING RCHS FROM LAST STRESS PERIOD
 UBDSV06 SAVING              DRN IN MODEL GWF_1            PACKAGE GWF_1           CONNECTED TO MODEL GWF_1            PACKAGE DRN_SYS1         ON UNIT   1018 AT TIME STEP      1, STRESS PERIOD      4
 UBDSV06 SAVING              RIV IN MODEL GWF_1            PACKAGE GWF_1           CONNECTED TO MODEL GWF_1            PACKAGE RIV_SYS1         ON UNIT   1018 AT TIME STEP      1, STRESS PERIOD      4
 UBDSV06 SAVING              RIV IN MODEL GWF_1            PACKAGE GWF_1           CONNECTED TO MODEL GWF_1            PACKAGE RIV_SYS2         ON UNIT   1018 AT TIME STEP      1, STRESS PERIOD      4
 UBDSV06 SAVING              RCH IN MODEL GWF_1            PACKAGE GWF_1           CONNECTED TO MODEL GWF_1            PACKAGE RCH_MSW          ON UNIT   1018 AT TIME STEP      1, STRESS PERIOD      4

 HEAD WILL BE SAVED ON UNIT 1017 AT END OF TIME STEP    1, STRESS PERIOD    4


  VOLUME BUDGET FOR ENTIRE MODEL AT END OF TIME STEP    1, STRESS PERIOD   4
  ---------------------------------------------------------------------------------------------------

     CUMULATIVE VOLUME      L**3       RATES FOR THIS TIME STEP      L**3/T          PACKAGE NAME    
     ------------------                 ------------------------                     ----------------

           IN:                                      IN:
           ---                                      ---
              STO-SS =       62756.3540                STO-SS =        9524.7908     STORAGE                          
                 DRN =           0.0000                   DRN =           0.0000     DRN_SYS1                         
                 RIV =           0.0000                   RIV =           0.0000     RIV_SYS1                         
                 RIV =           0.0000                   RIV =           0.0000     RIV_SYS2                         
                 RCH =        4385.2485                   RCH =        1972.6068     RCH_MSW                          

            TOTAL IN =       67141.6025              TOTAL IN =       11497.3976

          OUT:                                     OUT:
          ----                                     ----
              STO-SS =           0.0000                STO-SS =           0.0000     STORAGE                          
                 DRN =        1059.8731                   DRN =         245.5422     DRN_SYS1                         
                 RIV =       59756.2885                   RIV =       10453.0591     RIV_SYS1                         
                 RIV =        3018.0861                   RIV =         684.1642     RIV_SYS2                         
                 RCH =        3307.2196                   RCH =         114.6378     RCH_MSW                          

           TOTAL OUT =       67141.4672             TOTAL OUT =       11497.4034

            IN - OUT =           0.1353              IN - OUT =      -5.7697E-03

 PERCENT DISCREPANCY =           0.00     PERCENT DISCREPANCY =          -0.00




         TIME SUMMARY AT END OF TIME STEP    1 IN STRESS PERIOD    4
                    SECONDS     MINUTES      HOURS       DAYS        YEARS
                    -----------------------------------------------------------
   TIME STEP LENGTH  86400.      1440.0      24.000      1.0000     2.73785E-03
 STRESS PERIOD TIME  86400.      1440.0      24.000      1.0000     2.73785E-03
         TOTAL TIME 3.45600E+05  5760.0      96.000      4.0000     1.09514E-02


end timestep


start timestep kper="5" kstp="1" mode="normal"

 #Stressperiod Save Options

 BEGIN READING OUTPUT CONTROL FOR STRESS PERIOD 5
      ALL TIME STEPS WILL BE SAVED
      ALL TIME STEPS WILL BE SAVED

 END READING OUTPUT CONTROL FOR STRESS PERIOD 5


 PROCESSING STORAGE PERIOD DATA
 END PROCESSING STORAGE PERIOD DATA


 STRESS PERIOD 5 IS TRANSIENT


 REUSING DRNS FROM LAST STRESS PERIOD

 REUSING RIVS FROM LAST STRESS PERIOD

 REUSING RIVS FROM LAST STRESS PERIOD

 REUSING RCHS FROM LAST STRESS PERIOD
 UBDSV06 SAVING              DRN IN MODEL GWF_1            PACKAGE GWF_1           CONNECTED TO MODEL GWF_1            PACKAGE DRN_SYS1         ON UNIT   1018 AT TIME STEP      1, STRESS PERIOD      5
 UBDSV06 SAVING              RIV IN MODEL GWF_1            PACKAGE GWF_1           CONNECTED TO MODEL GWF_1            PACKAGE RIV_SYS1         ON UNIT   1018 AT TIME STEP      1, STRESS PERIOD      5
 UBDSV06 SAVING              RIV IN MODEL GWF_1            PACKAGE GWF_1           CONNECTED TO MODEL GWF_1            PACKAGE RIV_SYS2         ON UNIT   1018 AT TIME STEP      1, STRESS PERIOD      5
 UBDSV06 SAVING              RCH IN MODEL GWF_1            PACKAGE GWF_1           CONNECTED TO MODEL GWF_1            PACKAGE RCH_MSW          ON UNIT   1018 AT TIME STEP      1, STRESS PERIOD      5

 HEAD WILL BE SAVED ON UNIT 1017 AT END OF TIME STEP    1, STRESS PERIOD    5


  VOLUME BUDGET FOR ENTIRE MODEL AT END OF TIME STEP    1, STRESS PERIOD   5
  ---------------------------------------------------------------------------------------------------

     CUMULATIVE VOLUME      L**3       RATES FOR THIS TIME STEP      L**3/T          PACKAGE NAME    
     ------------------                 ------------------------                     ----------------

           IN:                                      IN:
           ---                                      ---
              STO-SS =       70132.7713                STO-SS =        7376.4173     STORAGE                          
                 DRN =           0.0000                   DRN =           0.0000     DRN_SYS1                         
                 RIV =           0.0000                   RIV =           0.0000     RIV_SYS1                         
                 RIV =           0.0000                   RIV =           0.0000     RIV_SYS2                         
                 RCH =        7284.1180                   RCH =        2898.8695     RCH_MSW                          

            TOTAL IN =       77416.8893              TOTAL IN =       10275.2868

          OUT:                                     OUT:
          ----                                     ----
              STO-SS =           0.0000                STO-SS =           0.0000     STORAGE                          
                 DRN =        1294.8984                   DRN =         235.0253     DRN_SYS1                         
                 RIV =       69104.4197                   RIV =        9348.1312     RIV_SYS1                         
                 RIV =        3664.9123                   RIV =         646.8262     RIV_SYS2                         
                 RCH =        3352.5246                   RCH =          45.3050     RCH_MSW                          

           TOTAL OUT =       77416.7550             TOTAL OUT =       10275.2878

            IN - OUT =           0.1343              IN - OUT =      -1.0013E-03

 PERCENT DISCREPANCY =           0.00     PERCENT DISCREPANCY =          -0.00




         TIME SUMMARY AT END OF TIME STEP    1 IN STRESS PERIOD    5
                    SECONDS     MINUTES      HOURS       DAYS        YEARS
                    -----------------------------------------------------------
   TIME STEP LENGTH  86400.      1440.0      24.000      1.0000     2.73785E-03
 STRESS PERIOD TIME  86400.      1440.0      24.000      1.0000     2.73785E-03
         TOTAL TIME 4.32000E+05  7200.0      120.00      5.0000     1.36893E-02


end timestep


start timestep kper="6" kstp="1" mode="normal"

 #Stressperiod Save Options

 BEGIN READING OUTPUT CONTROL FOR STRESS PERIOD 6
      ALL TIME STEPS WILL BE SAVED
      ALL TIME STEPS WILL BE SAVED

 END READING OUTPUT CONTROL FOR STRESS PERIOD 6


 PROCESSING STORAGE PERIOD DATA
 END PROCESSING STORAGE PERIOD DATA


 STRESS PERIOD 6 IS TRANSIENT


 REUSING DRNS FROM LAST STRESS PERIOD

 REUSING RIVS FROM LAST STRESS PERIOD

 REUSING RIVS FROM LAST STRESS PERIOD

 REUSING RCHS FROM LAST STRESS PERIOD
 UBDSV06 SAVING              DRN IN MODEL GWF_1            PACKAGE GWF_1           CONNECTED TO MODEL GWF_1            PACKAGE DRN_SYS1         ON UNIT   1018 AT TIME STEP      1, STRESS PERIOD      6
 UBDSV06 SAVING              RIV IN MODEL GWF_1            PACKAGE GWF_1           CONNECTED TO MODEL GWF_1            PACKAGE RIV_SYS1         ON UNIT   1018 AT TIME STEP      1, STRESS PERIOD      6
 UBDSV06 SAVING              RIV IN MODEL GWF_1            PACKAGE GWF_1           CONNECTED TO MODEL GWF_1            PACKAGE RIV_SYS2         ON UNIT   1018 AT TIME STEP      1, STRESS PERIOD      6
 UBDSV06 SAVING              RCH IN MODEL GWF_1            PACKAGE GWF_1           CONNECTED TO MODEL GWF_1            PACKAGE RCH_MSW          ON UNIT   1018 AT TIME STEP      1, STRESS PERIOD      6

 HEAD WILL BE SAVED ON UNIT 1017 AT END OF TIME STEP    1, STRESS PERIOD    6


  VOLUME BUDGET FOR ENTIRE MODEL AT END OF TIME STEP    1, STRESS PERIOD   6
  ---------------------------------------------------------------------------------------------------

     CUMULATIVE VOLUME      L**3       RATES FOR THIS TIME STEP      L**3/T          PACKAGE NAME    
     ------------------                 ------------------------                     ----------------

           IN:                                      IN:
           ---                                      ---
              STO-SS =       76203.2825                STO-SS =        6070.5112     STORAGE                          
                 DRN =           0.0000                   DRN =           0.0000     DRN_SYS1                         
                 RIV =           0.0000                   RIV =           0.0000     RIV_SYS1                         
                 RIV =           0.0000                   RIV =           0.0000     RIV_SYS2                         
                 RCH =       10652.7892                   RCH =        3368.6711     RCH_MSW                          

            TOTAL IN =       86856.0717              TOTAL IN =        9439.1823

          OUT:                                     OUT:
          ----                                     ----
              STO-SS =           0.0000                STO-SS =           0.0000     STORAGE                          
                 DRN =        1520.8387                   DRN =         225.9403     DRN_SYS1                         
                 RIV =       77697.6999                   RIV =        8593.2802     RIV_SYS1                         
                 RIV =        4280.0016                   RIV =         615.0893     RIV_SYS2                         
                 RCH =        3357.3981                   RCH =           4.8735     RCH_MSW                          

           TOTAL OUT =       86855.9384             TOTAL OUT =        9439.1834

            IN - OUT =           0.1333              IN - OUT =      -1.0112E-03

 PERCENT DISCREPANCY =           0.00     PERCENT DISCREPANCY =          -0.00




         TIME SUMMARY AT END OF TIME STEP    1 IN STRESS PERIOD    6
                    SECONDS     MINUTES      HOURS       DAYS        YEARS
                    -----------------------------------------------------------
   TIME STEP LENGTH  86400.      1440.0      24.000      1.0000     2.73785E-03
 STRESS PERIOD TIME  86400.      1440.0      24.000      1.0000     2.73785E-03
         TOTAL TIME 5.18400E+05  8640.0      144.00      6.0000     1.64271E-02


end timestep


start timestep kper="7" kstp="1" mode="normal"

 #Stressperiod Save Options

 BEGIN READING OUTPUT CONTROL FOR STRESS PERIOD 7
      ALL TIME STEPS WILL BE SAVED
      ALL TIME STEPS WILL BE SAVED

 END READING OUTPUT CONTROL FOR STRESS PERIOD 7


 PROCESSING STORAGE PERIOD DATA
 END PROCESSING STORAGE PERIOD DATA


 STRESS PERIOD 7 IS TRANSIENT


 REUSING DRNS FROM LAST STRESS PERIOD

 REUSING RIVS FROM LAST STRESS PERIOD

 REUSING RIVS FROM LAST STRESS PERIOD

 REUSING RCHS FROM LAST STRESS PERIOD
 UBDSV06 SAVING              DRN IN MODEL GWF_1            PACKAGE GWF_1           CONNECTED TO MODEL GWF_1            PACKAGE DRN_SYS1         ON UNIT   1018 AT TIME STEP      1, STRESS PERIOD      7
 UBDSV06 SAVING              RIV IN MODEL GWF_1            PACKAGE GWF_1           CONNECTED TO MODEL GWF_1            PACKAGE RIV_SYS1         ON UNIT   1018 AT TIME STEP      1, STRESS PERIOD      7
 UBDSV06 SAVING              RIV IN MODEL GWF_1            PACKAGE GWF_1           CONNECTED TO MODEL GWF_1            PACKAGE RIV_SYS2         ON UNIT   1018 AT TIME STEP      1, STRESS PERIOD      7
 UBDSV06 SAVING              RCH IN MODEL GWF_1            PACKAGE GWF_1           CONNECTED TO MODEL GWF_1            PACKAGE RCH_MSW          ON UNIT   1018 AT TIME STEP      1, STRESS PERIOD      7

 HEAD WILL BE SAVED ON UNIT 1017 AT END OF TIME STEP    1, STRESS PERIOD    7


  VOLUME BUDGET FOR ENTIRE MODEL AT END OF TIME STEP    1, STRESS PERIOD   7
  ---------------------------------------------------------------------------------------------------

     CUMULATIVE VOLUME      L**3       RATES FOR THIS TIME STEP      L**3/T          PACKAGE NAME    
     ------------------                 ------------------------                     ----------------

           IN:                                      IN:
           ---                                      ---
              STO-SS =       82020.9051                STO-SS =        5817.6226     STORAGE                          
                 DRN =           0.0000                   DRN =           0.0000     DRN_SYS1                         
                 RIV =           0.0000                   RIV =           0.0000     RIV_SYS1                         
                 RIV =           0.0000                   RIV =           0.0000     RIV_SYS2                         
                 RCH =       13592.5095                   RCH =        2939.7203     RCH_MSW                          

            TOTAL IN =       95613.4146              TOTAL IN =        8757.3429

          OUT:                                     OUT:
          ----                                     ----
              STO-SS =           0.0000                STO-SS =           0.0000     STORAGE                          
                 DRN =        1737.4535                   DRN =         216.6147     DRN_SYS1                         
                 RIV =       85652.8055                   RIV =        7955.1056     RIV_SYS1                         
                 RIV =        4865.1549                   RIV =         585.1533     RIV_SYS2                         
                 RCH =        3357.8410                   RCH =           0.4428     RCH_MSW                          

           TOTAL OUT =       95613.2549             TOTAL OUT =        8757.3165

            IN - OUT =           0.1597              IN - OUT =       2.6427E-02

 PERCENT DISCREPANCY =           0.00     PERCENT DISCREPANCY =           0.00




         TIME SUMMARY AT END OF TIME STEP    1 IN STRESS PERIOD    7
                    SECONDS     MINUTES      HOURS       DAYS        YEARS
                    -----------------------------------------------------------
   TIME STEP LENGTH  86400.      1440.0      24.000      1.0000     2.73785E-03
 STRESS PERIOD TIME  86400.      1440.0      24.000      1.0000     2.73785E-03
         TOTAL TIME 6.04800E+05  10080.      168.00      7.0000     1.91650E-02


end timestep


start timestep kper="8" kstp="1" mode="normal"

 #Stressperiod Save Options

 BEGIN READING OUTPUT CONTROL FOR STRESS PERIOD 8
      ALL TIME STEPS WILL BE SAVED
      ALL TIME STEPS WILL BE SAVED

 END READING OUTPUT CONTROL FOR STRESS PERIOD 8


 PROCESSING STORAGE PERIOD DATA
 END PROCESSING STORAGE PERIOD DATA


 STRESS PERIOD 8 IS TRANSIENT


 REUSING DRNS FROM LAST STRESS PERIOD

 REUSING RIVS FROM LAST STRESS PERIOD

 REUSING RIVS FROM LAST STRESS PERIOD

 REUSING RCHS FROM LAST STRESS PERIOD
 UBDSV06 SAVING              DRN IN MODEL GWF_1            PACKAGE GWF_1           CONNECTED TO MODEL GWF_1            PACKAGE DRN_SYS1         ON UNIT   1018 AT TIME STEP      1, STRESS PERIOD      8
 UBDSV06 SAVING              RIV IN MODEL GWF_1            PACKAGE GWF_1           CONNECTED TO MODEL GWF_1            PACKAGE RIV_SYS1         ON UNIT   1018 AT TIME STEP      1, STRESS PERIOD      8
 UBDSV06 SAVING              RIV IN MODEL GWF_1            PACKAGE GWF_1           CONNECTED TO MODEL GWF_1            PACKAGE RIV_SYS2         ON UNIT   1018 AT TIME STEP      1, STRESS PERIOD      8
 UBDSV06 SAVING              RCH IN MODEL GWF_1            PACKAGE GWF_1           CONNECTED TO MODEL GWF_1            PACKAGE RCH_MSW          ON UNIT   1018 AT TIME STEP      1, STRESS PERIOD      8

 HEAD WILL BE SAVED ON UNIT 1017 AT END OF TIME STEP    1, STRESS PERIOD    8


  VOLUME BUDGET FOR ENTIRE MODEL AT END OF TIME STEP    1, STRESS PERIOD   8
  ---------------------------------------------------------------------------------------------------

     CUMULATIVE VOLUME      L**3       RATES FOR THIS TIME STEP      L**3/T          PACKAGE NAME    
     ------------------                 ------------------------                     ----------------

           IN:                                      IN:
           ---                                      ---
              STO-SS =       87642.0585                STO-SS =        5621.1534     STORAGE                          
                 DRN =           0.0000                   DRN =           0.0000     DRN_SYS1                         
                 RIV =           1.2397                   RIV =           1.2397     RIV_SYS1                         
                 RIV =           0.0000                   RIV =           0.0000     RIV_SYS2                         
                 RCH =       16123.6689                   RCH =        2531.1595     RCH_MSW                          

            TOTAL IN =      103766.9672              TOTAL IN =        8153.5526

          OUT:                                     OUT:
          ----                                     ----
              STO-SS =           0.0000                STO-SS =           0.0000     STORAGE                          
                 DRN =        1944.6225                   DRN =         207.1690     DRN_SYS1                         
                 RIV =       93042.8962                   RIV =        7390.0907     RIV_SYS1                         
                 RIV =        5421.4167                   RIV =         556.2618     RIV_SYS2                         
                 RCH =        3357.8410                   RCH =           0.0000     RCH_MSW                          

           TOTAL OUT =      103766.7764             TOTAL OUT =        8153.5215

            IN - OUT =           0.1907              IN - OUT =       3.1028E-02

 PERCENT DISCREPANCY =           0.00     PERCENT DISCREPANCY =           0.00




         TIME SUMMARY AT END OF TIME STEP    1 IN STRESS PERIOD    8
                    SECONDS     MINUTES      HOURS       DAYS        YEARS
                    -----------------------------------------------------------
   TIME STEP LENGTH  86400.      1440.0      24.000      1.0000     2.73785E-03
 STRESS PERIOD TIME  86400.      1440.0      24.000      1.0000     2.73785E-03
         TOTAL TIME 6.91200E+05  11520.      192.00      8.0000     2.19028E-02


end timestep


start timestep kper="9" kstp="1" mode="normal"

 #Stressperiod Save Options

 BEGIN READING OUTPUT CONTROL FOR STRESS PERIOD 9
      ALL TIME STEPS WILL BE SAVED
      ALL TIME STEPS WILL BE SAVED

 END READING OUTPUT CONTROL FOR STRESS PERIOD 9


 PROCESSING STORAGE PERIOD DATA
 END PROCESSING STORAGE PERIOD DATA


 STRESS PERIOD 9 IS TRANSIENT


 REUSING DRNS FROM LAST STRESS PERIOD

 REUSING RIVS FROM LAST STRESS PERIOD

 REUSING RIVS FROM LAST STRESS PERIOD

 REUSING RCHS FROM LAST STRESS PERIOD
 UBDSV06 SAVING              DRN IN MODEL GWF_1            PACKAGE GWF_1           CONNECTED TO MODEL GWF_1            PACKAGE DRN_SYS1         ON UNIT   1018 AT TIME STEP      1, STRESS PERIOD      9
 UBDSV06 SAVING              RIV IN MODEL GWF_1            PACKAGE GWF_1           CONNECTED TO MODEL GWF_1            PACKAGE RIV_SYS1         ON UNIT   1018 AT TIME STEP      1, STRESS PERIOD      9
 UBDSV06 SAVING              RIV IN MODEL GWF_1            PACKAGE GWF_1           CONNECTED TO MODEL GWF_1            PACKAGE RIV_SYS2         ON UNIT   1018 AT TIME STEP      1, STRESS PERIOD      9
 UBDSV06 SAVING              RCH IN MODEL GWF_1            PACKAGE GWF_1           CONNECTED TO MODEL GWF_1            PACKAGE RCH_MSW          ON UNIT   1018 AT TIME STEP      1, STRESS PERIOD      9

 HEAD WILL BE SAVED ON UNIT 1017 AT END OF TIME STEP    1, STRESS PERIOD    9


  VOLUME BUDGET FOR ENTIRE MODEL AT END OF TIME STEP    1, STRESS PERIOD   9
  ---------------------------------------------------------------------------------------------------

     CUMULATIVE VOLUME      L**3       RATES FOR THIS TIME STEP      L**3/T          PACKAGE NAME    
     ------------------                 ------------------------                     ----------------

           IN:                                      IN:
           ---                                      ---
              STO-SS =       93054.5079                STO-SS =        5412.4494     STORAGE                          
                 DRN =           0.0000                   DRN =           0.0000     DRN_SYS1                         
                 RIV =           4.4649                   RIV =           3.2251     RIV_SYS1                         
                 RIV =           0.0000                   RIV =           0.0000     RIV_SYS2                         
                 RCH =       18318.1927                   RCH =        2194.5238     RCH_MSW                          

            TOTAL IN =      111377.1655              TOTAL IN =        7610.1983

          OUT:                                     OUT:
          ----                                     ----
              STO-SS =           0.0000                STO-SS =           0.0000     STORAGE                          
                 DRN =        2142.4684                   DRN =         197.8459     DRN_SYS1                         
                 RIV =       99926.6857                   RIV =        6883.7895     RIV_SYS1                         
                 RIV =        5950.0526                   RIV =         528.6359     RIV_SYS2                         
                 RCH =        3357.8410                   RCH =           0.0000     RCH_MSW                          

           TOTAL OUT =      111377.0476             TOTAL OUT =        7610.2712

            IN - OUT =           0.1179              IN - OUT =      -7.2863E-02

 PERCENT DISCREPANCY =           0.00     PERCENT DISCREPANCY =          -0.00




         TIME SUMMARY AT END OF TIME STEP    1 IN STRESS PERIOD    9
                    SECONDS     MINUTES      HOURS       DAYS        YEARS
                    -----------------------------------------------------------
   TIME STEP LENGTH  86400.      1440.0      24.000      1.0000     2.73785E-03
 STRESS PERIOD TIME  86400.      1440.0      24.000      1.0000     2.73785E-03
         TOTAL TIME 7.77600E+05  12960.      216.00      9.0000     2.46407E-02


end timestep


start timestep kper="10" kstp="1" mode="normal"

 #Stressperiod Save Options

 BEGIN READING OUTPUT CONTROL FOR STRESS PERIOD 10
      ALL TIME STEPS WILL BE SAVED
      ALL TIME STEPS WILL BE SAVED

 END READING OUTPUT CONTROL FOR STRESS PERIOD 10


 PROCESSING STORAGE PERIOD DATA
 END PROCESSING STORAGE PERIOD DATA


 STRESS PERIOD 10 IS TRANSIENT


 REUSING DRNS FROM LAST STRESS PERIOD

 REUSING RIVS FROM LAST STRESS PERIOD

 REUSING RIVS FROM LAST STRESS PERIOD

 REUSING RCHS FROM LAST STRESS PERIOD
 UBDSV06 SAVING              DRN IN MODEL GWF_1            PACKAGE GWF_1           CONNECTED TO MODEL GWF_1            PACKAGE DRN_SYS1         ON UNIT   1018 AT TIME STEP      1, STRESS PERIOD     10
 UBDSV06 SAVING              RIV IN MODEL GWF_1            PACKAGE GWF_1           CONNECTED TO MODEL GWF_1            PACKAGE RIV_SYS1         ON UNIT   1018 AT TIME STEP      1, STRESS PERIOD     10
 UBDSV06 SAVING              RIV IN MODEL GWF_1            PACKAGE GWF_1           CONNECTED TO MODEL GWF_1            PACKAGE RIV_SYS2         ON UNIT   1018 AT TIME STEP      1, STRESS PERIOD     10
 UBDSV06 SAVING              RCH IN MODEL GWF_1            PACKAGE GWF_1           CONNECTED TO MODEL GWF_1            PACKAGE RCH_MSW          ON UNIT   1018 AT TIME STEP      1, STRESS PERIOD     10

 HEAD WILL BE SAVED ON UNIT 1017 AT END OF TIME STEP    1, STRESS PERIOD   10


  VOLUME BUDGET FOR ENTIRE MODEL AT END OF TIME STEP    1, STRESS PERIOD  10
  ---------------------------------------------------------------------------------------------------

     CUMULATIVE VOLUME      L**3       RATES FOR THIS TIME STEP      L**3/T          PACKAGE NAME    
     ------------------                 ------------------------                     ----------------

           IN:                                      IN:
           ---                                      ---
              STO-SS =       98223.6917                STO-SS =        5169.1838     STORAGE                          
                 DRN =           0.0000                   DRN =           0.0000     DRN_SYS1                         
                 RIV =          11.2540                   RIV =           6.7891     RIV_SYS1                         
                 RIV =           0.0000                   RIV =           0.0000     RIV_SYS2                         
                 RCH =       20265.7224                   RCH =        1947.5297     RCH_MSW                          

            TOTAL IN =      118500.6681              TOTAL IN =        7123.5026

          OUT:                                     OUT:
          ----                                     ----
              STO-SS =           0.0000                STO-SS =           0.0000     STORAGE                          
                 DRN =        2331.4043                   DRN =         188.9359     DRN_SYS1                         
                 RIV =      106358.8049                   RIV =        6432.1192     RIV_SYS1                         
                 RIV =        6452.5060                   RIV =         502.4534     RIV_SYS2                         
                 RCH =        3357.8410                   RCH =           0.0000     RCH_MSW                          

           TOTAL OUT =      118500.5562             TOTAL OUT =        7123.5085

            IN - OUT =           0.1119              IN - OUT =      -5.9360E-03

 PERCENT DISCREPANCY =           0.00     PERCENT DISCREPANCY =          -0.00




         TIME SUMMARY AT END OF TIME STEP    1 IN STRESS PERIOD   10
                    SECONDS     MINUTES      HOURS       DAYS        YEARS
                    -----------------------------------------------------------
   TIME STEP LENGTH  86400.      1440.0      24.000      1.0000     2.73785E-03
 STRESS PERIOD TIME  86400.      1440.0      24.000      1.0000     2.73785E-03
         TOTAL TIME 8.64000E+05  14400.      240.00      10.000     2.73785E-02


end timestep


start timestep kper="11" kstp="1" mode="normal"

 #Stressperiod Save Options

 BEGIN READING OUTPUT CONTROL FOR STRESS PERIOD 11
      ALL TIME STEPS WILL BE SAVED
      ALL TIME STEPS WILL BE SAVED

 END READING OUTPUT CONTROL FOR STRESS PERIOD 11


 PROCESSING STORAGE PERIOD DATA
 END PROCESSING STORAGE PERIOD DATA


 STRESS PERIOD 11 IS TRANSIENT


 REUSING DRNS FROM LAST STRESS PERIOD

 REUSING RIVS FROM LAST STRESS PERIOD

 REUSING RIVS FROM LAST STRESS PERIOD

 REUSING RCHS FROM LAST STRESS PERIOD
 UBDSV06 SAVING              DRN IN MODEL GWF_1            PACKAGE GWF_1           CONNECTED TO MODEL GWF_1            PACKAGE DRN_SYS1         ON UNIT   1018 AT TIME STEP      1, STRESS PERIOD     11
 UBDSV06 SAVING              RIV IN MODEL GWF_1            PACKAGE GWF_1           CONNECTED TO MODEL GWF_1            PACKAGE RIV_SYS1         ON UNIT   1018 AT TIME STEP      1, STRESS PERIOD     11
 UBDSV06 SAVING              RIV IN MODEL GWF_1            PACKAGE GWF_1           CONNECTED TO MODEL GWF_1            PACKAGE RIV_SYS2         ON UNIT   1018 AT TIME STEP      1, STRESS PERIOD     11
 UBDSV06 SAVING              RCH IN MODEL GWF_1            PACKAGE GWF_1           CONNECTED TO MODEL GWF_1            PACKAGE RCH_MSW          ON UNIT   1018 AT TIME STEP      1, STRESS PERIOD     11

 HEAD WILL BE SAVED ON UNIT 1017 AT END OF TIME STEP    1, STRESS PERIOD   11


  VOLUME BUDGET FOR ENTIRE MODEL AT END OF TIME STEP    1, STRESS PERIOD  11
  ---------------------------------------------------------------------------------------------------

     CUMULATIVE VOLUME      L**3       RATES FOR THIS TIME STEP      L**3/T          PACKAGE NAME    
     ------------------                 ------------------------                     ----------------

           IN:                                      IN:
           ---                                      ---
              STO-SS =      103096.6355                STO-SS =        4872.9437     STORAGE                          
                 DRN =           0.0000                   DRN =           0.0000     DRN_SYS1                         
                 RIV =          27.8649                   RIV =          16.6109     RIV_SYS1                         
                 RIV =           0.0000                   RIV =           0.0000     RIV_SYS2                         
                 RCH =       22073.5202                   RCH =        1807.7978     RCH_MSW                          

            TOTAL IN =      125198.0205              TOTAL IN =        6697.3524

          OUT:                                     OUT:
          ----                                     ----
              STO-SS =           0.0000                STO-SS =           0.0000     STORAGE                          
                 DRN =        2511.8649                   DRN =         180.4606     DRN_SYS1                         
                 RIV =      112397.7645                   RIV =        6038.9596     RIV_SYS1                         
                 RIV =        6930.4488                   RIV =         477.9429     RIV_SYS2                         
                 RCH =        3357.8410                   RCH =           0.0000     RCH_MSW                          

           TOTAL OUT =      125197.9192             TOTAL OUT =        6697.3631

            IN - OUT =           0.1013              IN - OUT =      -1.0617E-02

 PERCENT DISCREPANCY =           0.00     PERCENT DISCREPANCY =          -0.00




         TIME SUMMARY AT END OF TIME STEP    1 IN STRESS PERIOD   11
                    SECONDS     MINUTES      HOURS       DAYS        YEARS
                    -----------------------------------------------------------
   TIME STEP LENGTH  86400.      1440.0      24.000      1.0000     2.73785E-03
 STRESS PERIOD TIME  86400.      1440.0      24.000      1.0000     2.73785E-03
         TOTAL TIME 9.50400E+05  15840.      264.00      11.000     3.01164E-02


end timestep


start timestep kper="12" kstp="1" mode="normal"

 #Stressperiod Save Options

 BEGIN READING OUTPUT CONTROL FOR STRESS PERIOD 12
      ALL TIME STEPS WILL BE SAVED
      ALL TIME STEPS WILL BE SAVED

 END READING OUTPUT CONTROL FOR STRESS PERIOD 12


 PROCESSING STORAGE PERIOD DATA
 END PROCESSING STORAGE PERIOD DATA


 STRESS PERIOD 12 IS TRANSIENT


 REUSING DRNS FROM LAST STRESS PERIOD

 REUSING RIVS FROM LAST STRESS PERIOD

 REUSING RIVS FROM LAST STRESS PERIOD

 REUSING RCHS FROM LAST STRESS PERIOD
 UBDSV06 SAVING              DRN IN MODEL GWF_1            PACKAGE GWF_1           CONNECTED TO MODEL GWF_1            PACKAGE DRN_SYS1         ON UNIT   1018 AT TIME STEP      1, STRESS PERIOD     12
 UBDSV06 SAVING              RIV IN MODEL GWF_1            PACKAGE GWF_1           CONNECTED TO MODEL GWF_1            PACKAGE RIV_SYS1         ON UNIT   1018 AT TIME STEP      1, STRESS PERIOD     12
 UBDSV06 SAVING              RIV IN MODEL GWF_1            PACKAGE GWF_1           CONNECTED TO MODEL GWF_1            PACKAGE RIV_SYS2         ON UNIT   1018 AT TIME STEP      1, STRESS PERIOD     12
 UBDSV06 SAVING              RCH IN MODEL GWF_1            PACKAGE GWF_1           CONNECTED TO MODEL GWF_1            PACKAGE RCH_MSW          ON UNIT   1018 AT TIME STEP      1, STRESS PERIOD     12

 HEAD WILL BE SAVED ON UNIT 1017 AT END OF TIME STEP    1, STRESS PERIOD   12


  VOLUME BUDGET FOR ENTIRE MODEL AT END OF TIME STEP    1, STRESS PERIOD  12
  ---------------------------------------------------------------------------------------------------

     CUMULATIVE VOLUME      L**3       RATES FOR THIS TIME STEP      L**3/T          PACKAGE NAME    
     ------------------                 ------------------------                     ----------------

           IN:                                      IN:
           ---                                      ---
              STO-SS =      107499.0450                STO-SS =        4402.4096     STORAGE                          
                 DRN =           0.0000                   DRN =           0.0000     DRN_SYS1                         
                 RIV =          61.2115                   RIV =          33.3467     RIV_SYS1                         
                 RIV =           0.0000                   RIV =           0.0000     RIV_SYS2                         
                 RCH =       23979.9464                   RCH =        1906.4262     RCH_MSW                          

            TOTAL IN =      131540.2029              TOTAL IN =        6342.1824

          OUT:                                     OUT:
          ----                                     ----
              STO-SS =           0.0000                STO-SS =           0.0000     STORAGE                          
                 DRN =        2684.4888                   DRN =         172.6239     DRN_SYS1                         
                 RIV =      118111.8677                   RIV =        5714.1032     RIV_SYS1                         
                 RIV =        7385.9754                   RIV =         455.5266     RIV_SYS2                         
                 RCH =        3357.8410                   RCH =           0.0000     RCH_MSW                          

           TOTAL OUT =      131540.1729             TOTAL OUT =        6342.2536

            IN - OUT =       3.0085E-02              IN - OUT =      -7.1233E-02

 PERCENT DISCREPANCY =           0.00     PERCENT DISCREPANCY =          -0.00




         TIME SUMMARY AT END OF TIME STEP    1 IN STRESS PERIOD   12
                    SECONDS     MINUTES      HOURS       DAYS        YEARS
                    -----------------------------------------------------------
   TIME STEP LENGTH  86400.      1440.0      24.000      1.0000     2.73785E-03
 STRESS PERIOD TIME  86400.      1440.0      24.000      1.0000     2.73785E-03
         TOTAL TIME 1.03680E+06  17280.      288.00      12.000     3.28542E-02


end timestep


start timestep kper="13" kstp="1" mode="normal"

 #Stressperiod Save Options

 BEGIN READING OUTPUT CONTROL FOR STRESS PERIOD 13
      ALL TIME STEPS WILL BE SAVED
      ALL TIME STEPS WILL BE SAVED

 END READING OUTPUT CONTROL FOR STRESS PERIOD 13


 PROCESSING STORAGE PERIOD DATA
 END PROCESSING STORAGE PERIOD DATA


 STRESS PERIOD 13 IS TRANSIENT


 REUSING DRNS FROM LAST STRESS PERIOD

 REUSING RIVS FROM LAST STRESS PERIOD

 REUSING RIVS FROM LAST STRESS PERIOD

 REUSING RCHS FROM LAST STRESS PERIOD
 UBDSV06 SAVING              DRN IN MODEL GWF_1            PACKAGE GWF_1           CONNECTED TO MODEL GWF_1            PACKAGE DRN_SYS1         ON UNIT   1018 AT TIME STEP      1, STRESS PERIOD     13
 UBDSV06 SAVING              RIV IN MODEL GWF_1            PACKAGE GWF_1           CONNECTED TO MODEL GWF_1            PACKAGE RIV_SYS1         ON UNIT   1018 AT TIME STEP      1, STRESS PERIOD     13
 UBDSV06 SAVING              RIV IN MODEL GWF_1            PACKAGE GWF_1           CONNECTED TO MODEL GWF_1            PACKAGE RIV_SYS2         ON UNIT   1018 AT TIME STEP      1, STRESS PERIOD     13
 UBDSV06 SAVING              RCH IN MODEL GWF_1            PACKAGE GWF_1           CONNECTED TO MODEL GWF_1            PACKAGE RCH_MSW          ON UNIT   1018 AT TIME STEP      1, STRESS PERIOD     13

 HEAD WILL BE SAVED ON UNIT 1017 AT END OF TIME STEP    1, STRESS PERIOD   13


  VOLUME BUDGET FOR ENTIRE MODEL AT END OF TIME STEP    1, STRESS PERIOD  13
  ---------------------------------------------------------------------------------------------------

     CUMULATIVE VOLUME      L**3       RATES FOR THIS TIME STEP      L**3/T          PACKAGE NAME    
     ------------------                 ------------------------                     ----------------

           IN:                                      IN:
           ---                                      ---
              STO-SS =      111465.1878                STO-SS =        3966.1427     STORAGE                          
                 DRN =           0.0000                   DRN =           0.0000     DRN_SYS1                         
                 RIV =         110.4478                   RIV =          49.2363     RIV_SYS1                         
                 RIV =           0.0000                   RIV =           0.0000     RIV_SYS2                         
                 RCH =       26005.1612                   RCH =        2025.2148     RCH_MSW                          

            TOTAL IN =      137580.7968              TOTAL IN =        6040.5939

          OUT:                                     OUT:
          ----                                     ----
              STO-SS =           0.0000                STO-SS =           0.0000     STORAGE                          
                 DRN =        2849.9441                   DRN =         165.4553     DRN_SYS1                         
                 RIV =      123551.8980                   RIV =        5440.0303     RIV_SYS1                         
                 RIV =        7821.1177                   RIV =         435.1422     RIV_SYS2                         
                 RCH =        3357.8410                   RCH =           0.0000     RCH_MSW                          

           TOTAL OUT =      137580.8007             TOTAL OUT =        6040.6278

            IN - OUT =      -3.8965E-03              IN - OUT =      -3.3981E-02

 PERCENT DISCREPANCY =          -0.00     PERCENT DISCREPANCY =          -0.00




         TIME SUMMARY AT END OF TIME STEP    1 IN STRESS PERIOD   13
                    SECONDS     MINUTES      HOURS       DAYS        YEARS
                    -----------------------------------------------------------
   TIME STEP LENGTH  86400.      1440.0      24.000      1.0000     2.73785E-03
 STRESS PERIOD TIME  86400.      1440.0      24.000      1.0000     2.73785E-03
         TOTAL TIME 1.12320E+06  18720.      312.00      13.000     3.55921E-02


end timestep


start timestep kper="14" kstp="1" mode="normal"

 #Stressperiod Save Options

 BEGIN READING OUTPUT CONTROL FOR STRESS PERIOD 14
      ALL TIME STEPS WILL BE SAVED
      ALL TIME STEPS WILL BE SAVED

 END READING OUTPUT CONTROL FOR STRESS PERIOD 14


 PROCESSING STORAGE PERIOD DATA
 END PROCESSING STORAGE PERIOD DATA


 STRESS PERIOD 14 IS TRANSIENT


 REUSING DRNS FROM LAST STRESS PERIOD

 REUSING RIVS FROM LAST STRESS PERIOD

 REUSING RIVS FROM LAST STRESS PERIOD

 REUSING RCHS FROM LAST STRESS PERIOD
 UBDSV06 SAVING              DRN IN MODEL GWF_1            PACKAGE GWF_1           CONNECTED TO MODEL GWF_1            PACKAGE DRN_SYS1         ON UNIT   1018 AT TIME STEP      1, STRESS PERIOD     14
 UBDSV06 SAVING              RIV IN MODEL GWF_1            PACKAGE GWF_1           CONNECTED TO MODEL GWF_1            PACKAGE RIV_SYS1         ON UNIT   1018 AT TIME STEP      1, STRESS PERIOD     14
 UBDSV06 SAVING              RIV IN MODEL GWF_1            PACKAGE GWF_1           CONNECTED TO MODEL GWF_1            PACKAGE RIV_SYS2         ON UNIT   1018 AT TIME STEP      1, STRESS PERIOD     14
 UBDSV06 SAVING              RCH IN MODEL GWF_1            PACKAGE GWF_1           CONNECTED TO MODEL GWF_1            PACKAGE RCH_MSW          ON UNIT   1018 AT TIME STEP      1, STRESS PERIOD     14

 HEAD WILL BE SAVED ON UNIT 1017 AT END OF TIME STEP    1, STRESS PERIOD   14


  VOLUME BUDGET FOR ENTIRE MODEL AT END OF TIME STEP    1, STRESS PERIOD  14
  ---------------------------------------------------------------------------------------------------

     CUMULATIVE VOLUME      L**3       RATES FOR THIS TIME STEP      L**3/T          PACKAGE NAME    
     ------------------                 ------------------------                     ----------------

           IN:                                      IN:
           ---                                      ---
              STO-SS =      114990.7671                STO-SS =        3525.5793     STORAGE                          
                 DRN =           0.0000                   DRN =           0.0000     DRN_SYS1                         
                 RIV =         179.6133                   RIV =          69.1655     RIV_SYS1                         
                 RIV =           0.0000                   RIV =           0.0000     RIV_SYS2                         
                 RCH =       28203.7386                   RCH =        2198.5774     RCH_MSW                          

            TOTAL IN =      143374.1190              TOTAL IN =        5793.3222

          OUT:                                     OUT:
          ----                                     ----
              STO-SS =           0.0000                STO-SS =           0.0000     STORAGE                          
                 DRN =        3008.8933                   DRN =         158.9493     DRN_SYS1                         
                 RIV =      128769.5226                   RIV =        5217.6246     RIV_SYS1                         
                 RIV =        8237.8708                   RIV =         416.7532     RIV_SYS2                         
                 RCH =        3357.8410                   RCH =           0.0000     RCH_MSW                          

           TOTAL OUT =      143374.1277             TOTAL OUT =        5793.3271

            IN - OUT =      -8.7808E-03              IN - OUT =      -4.8843E-03

 PERCENT DISCREPANCY =          -0.00     PERCENT DISCREPANCY =          -0.00




         TIME SUMMARY AT END OF TIME STEP    1 IN STRESS PERIOD   14
                    SECONDS     MINUTES      HOURS       DAYS        YEARS
                    -----------------------------------------------------------
   TIME STEP LENGTH  86400.      1440.0      24.000      1.0000     2.73785E-03
 STRESS PERIOD TIME  86400.      1440.0      24.000      1.0000     2.73785E-03
         TOTAL TIME 1.20960E+06  20160.      336.00      14.000     3.83299E-02


end timestep


start timestep kper="15" kstp="1" mode="normal"

 #Stressperiod Save Options

 BEGIN READING OUTPUT CONTROL FOR STRESS PERIOD 15
      ALL TIME STEPS WILL BE SAVED
      ALL TIME STEPS WILL BE SAVED

 END READING OUTPUT CONTROL FOR STRESS PERIOD 15


 PROCESSING STORAGE PERIOD DATA
 END PROCESSING STORAGE PERIOD DATA


 STRESS PERIOD 15 IS TRANSIENT


 REUSING DRNS FROM LAST STRESS PERIOD

 REUSING RIVS FROM LAST STRESS PERIOD

 REUSING RIVS FROM LAST STRESS PERIOD

 REUSING RCHS FROM LAST STRESS PERIOD
 UBDSV06 SAVING              DRN IN MODEL GWF_1            PACKAGE GWF_1           CONNECTED TO MODEL GWF_1            PACKAGE DRN_SYS1         ON UNIT   1018 AT TIME STEP      1, STRESS PERIOD     15
 UBDSV06 SAVING              RIV IN MODEL GWF_1            PACKAGE GWF_1           CONNECTED TO MODEL GWF_1            PACKAGE RIV_SYS1         ON UNIT   1018 AT TIME STEP      1, STRESS PERIOD     15
 UBDSV06 SAVING              RIV IN MODEL GWF_1            PACKAGE GWF_1           CONNECTED TO MODEL GWF_1            PACKAGE RIV_SYS2         ON UNIT   1018 AT TIME STEP      1, STRESS PERIOD     15
 UBDSV06 SAVING              RCH IN MODEL GWF_1            PACKAGE GWF_1           CONNECTED TO MODEL GWF_1            PACKAGE RCH_MSW          ON UNIT   1018 AT TIME STEP      1, STRESS PERIOD     15

 HEAD WILL BE SAVED ON UNIT 1017 AT END OF TIME STEP    1, STRESS PERIOD   15


  VOLUME BUDGET FOR ENTIRE MODEL AT END OF TIME STEP    1, STRESS PERIOD  15
  ---------------------------------------------------------------------------------------------------

     CUMULATIVE VOLUME      L**3       RATES FOR THIS TIME STEP      L**3/T          PACKAGE NAME    
     ------------------                 ------------------------                     ----------------

           IN:                                      IN:
           ---                                      ---
              STO-SS =      118271.3012                STO-SS =        3280.5341     STORAGE                          
                 DRN =           0.0000                   DRN =           0.0000     DRN_SYS1                         
                 RIV =         267.0879                   RIV =          87.4745     RIV_SYS1                         
                 RIV =           0.0000                   RIV =           0.0000     RIV_SYS2                         
                 RCH =       30397.7499                   RCH =        2194.0114     RCH_MSW                          

            TOTAL IN =      148936.1390              TOTAL IN =        5562.0200

          OUT:                                     OUT:
          ----                                     ----
              STO-SS =           0.0000                STO-SS =           0.0000     STORAGE                          
                 DRN =        3161.7664                   DRN =         152.8731     DRN_SYS1                         
                 RIV =      133778.9203                   RIV =        5009.3977     RIV_SYS1                         
                 RIV =        8637.6240                   RIV =         399.7532     RIV_SYS2                         
                 RCH =        3357.8410                   RCH =           0.0000     RCH_MSW                          

           TOTAL OUT =      148936.1517             TOTAL OUT =        5562.0240

            IN - OUT =      -1.2729E-02              IN - OUT =      -3.9478E-03

 PERCENT DISCREPANCY =          -0.00     PERCENT DISCREPANCY =          -0.00




         TIME SUMMARY AT END OF TIME STEP    1 IN STRESS PERIOD   15
                    SECONDS     MINUTES      HOURS       DAYS        YEARS
                    -----------------------------------------------------------
   TIME STEP LENGTH  86400.      1440.0      24.000      1.0000     2.73785E-03
 STRESS PERIOD TIME  86400.      1440.0      24.000      1.0000     2.73785E-03
         TOTAL TIME 1.29600E+06  21600.      360.00      15.000     4.10678E-02


end timestep


start timestep kper="16" kstp="1" mode="normal"

 #Stressperiod Save Options

 BEGIN READING OUTPUT CONTROL FOR STRESS PERIOD 16
      ALL TIME STEPS WILL BE SAVED
      ALL TIME STEPS WILL BE SAVED

 END READING OUTPUT CONTROL FOR STRESS PERIOD 16


 PROCESSING STORAGE PERIOD DATA
 END PROCESSING STORAGE PERIOD DATA


 STRESS PERIOD 16 IS TRANSIENT


 REUSING DRNS FROM LAST STRESS PERIOD

 REUSING RIVS FROM LAST STRESS PERIOD

 REUSING RIVS FROM LAST STRESS PERIOD

 REUSING RCHS FROM LAST STRESS PERIOD
 UBDSV06 SAVING              DRN IN MODEL GWF_1            PACKAGE GWF_1           CONNECTED TO MODEL GWF_1            PACKAGE DRN_SYS1         ON UNIT   1018 AT TIME STEP      1, STRESS PERIOD     16
 UBDSV06 SAVING              RIV IN MODEL GWF_1            PACKAGE GWF_1           CONNECTED TO MODEL GWF_1            PACKAGE RIV_SYS1         ON UNIT   1018 AT TIME STEP      1, STRESS PERIOD     16
 UBDSV06 SAVING              RIV IN MODEL GWF_1            PACKAGE GWF_1           CONNECTED TO MODEL GWF_1            PACKAGE RIV_SYS2         ON UNIT   1018 AT TIME STEP      1, STRESS PERIOD     16
 UBDSV06 SAVING              RCH IN MODEL GWF_1            PACKAGE GWF_1           CONNECTED TO MODEL GWF_1            PACKAGE RCH_MSW          ON UNIT   1018 AT TIME STEP      1, STRESS PERIOD     16

 HEAD WILL BE SAVED ON UNIT 1017 AT END OF TIME STEP    1, STRESS PERIOD   16


  VOLUME BUDGET FOR ENTIRE MODEL AT END OF TIME STEP    1, STRESS PERIOD  16
  ---------------------------------------------------------------------------------------------------

     CUMULATIVE VOLUME      L**3       RATES FOR THIS TIME STEP      L**3/T          PACKAGE NAME    
     ------------------                 ------------------------                     ----------------

           IN:                                      IN:
           ---                                      ---
              STO-SS =      121396.7827                STO-SS =        3125.4815     STORAGE                          
                 DRN =           0.0000                   DRN =           0.0000     DRN_SYS1                         
                 RIV =         372.7554                   RIV =         105.6675     RIV_SYS1                         
                 RIV =           0.0000                   RIV =           0.0000     RIV_SYS2                         
                 RCH =       32506.6141                   RCH =        2108.8641     RCH_MSW                          

            TOTAL IN =      154276.1522              TOTAL IN =        5340.0132

          OUT:                                     OUT:
          ----                                     ----
              STO-SS =           0.0000                STO-SS =           0.0000     STORAGE                          
                 DRN =        3308.8418                   DRN =         147.0754     DRN_SYS1                         
                 RIV =      138588.1484                   RIV =        4809.2281     RIV_SYS1                         
                 RIV =        9021.3522                   RIV =         383.7282     RIV_SYS2                         
                 RCH =        3357.8410                   RCH =           0.0000     RCH_MSW                          

           TOTAL OUT =      154276.1834             TOTAL OUT =        5340.0317

            IN - OUT =      -3.1204E-02              IN - OUT =      -1.8475E-02

 PERCENT DISCREPANCY =          -0.00     PERCENT DISCREPANCY =          -0.00




         TIME SUMMARY AT END OF TIME STEP    1 IN STRESS PERIOD   16
                    SECONDS     MINUTES      HOURS       DAYS        YEARS
                    -----------------------------------------------------------
   TIME STEP LENGTH  86400.      1440.0      24.000      1.0000     2.73785E-03
 STRESS PERIOD TIME  86400.      1440.0      24.000      1.0000     2.73785E-03
         TOTAL TIME 1.38240E+06  23040.      384.00      16.000     4.38056E-02


end timestep


start timestep kper="17" kstp="1" mode="normal"

 #Stressperiod Save Options

 BEGIN READING OUTPUT CONTROL FOR STRESS PERIOD 17
      ALL TIME STEPS WILL BE SAVED
      ALL TIME STEPS WILL BE SAVED

 END READING OUTPUT CONTROL FOR STRESS PERIOD 17


 PROCESSING STORAGE PERIOD DATA
 END PROCESSING STORAGE PERIOD DATA


 STRESS PERIOD 17 IS TRANSIENT


 REUSING DRNS FROM LAST STRESS PERIOD

 REUSING RIVS FROM LAST STRESS PERIOD

 REUSING RIVS FROM LAST STRESS PERIOD

 REUSING RCHS FROM LAST STRESS PERIOD
 UBDSV06 SAVING              DRN IN MODEL GWF_1            PACKAGE GWF_1           CONNECTED TO MODEL GWF_1            PACKAGE DRN_SYS1         ON UNIT   1018 AT TIME STEP      1, STRESS PERIOD     17
 UBDSV06 SAVING              RIV IN MODEL GWF_1            PACKAGE GWF_1           CONNECTED TO MODEL GWF_1            PACKAGE RIV_SYS1         ON UNIT   1018 AT TIME STEP      1, STRESS PERIOD     17
 UBDSV06 SAVING              RIV IN MODEL GWF_1            PACKAGE GWF_1           CONNECTED TO MODEL GWF_1            PACKAGE RIV_SYS2         ON UNIT   1018 AT TIME STEP      1, STRESS PERIOD     17
 UBDSV06 SAVING              RCH IN MODEL GWF_1            PACKAGE GWF_1           CONNECTED TO MODEL GWF_1            PACKAGE RCH_MSW          ON UNIT   1018 AT TIME STEP      1, STRESS PERIOD     17

 HEAD WILL BE SAVED ON UNIT 1017 AT END OF TIME STEP    1, STRESS PERIOD   17


  VOLUME BUDGET FOR ENTIRE MODEL AT END OF TIME STEP    1, STRESS PERIOD  17
  ---------------------------------------------------------------------------------------------------

     CUMULATIVE VOLUME      L**3       RATES FOR THIS TIME STEP      L**3/T          PACKAGE NAME    
     ------------------                 ------------------------                     ----------------

           IN:                                      IN:
           ---                                      ---
              STO-SS =      124412.3145                STO-SS =        3015.5317     STORAGE                          
                 DRN =           0.0000                   DRN =           0.0000     DRN_SYS1                         
                 RIV =         503.1659                   RIV =         130.4105     RIV_SYS1                         
                 RIV =           0.0000                   RIV =           0.0000     RIV_SYS2                         
                 RCH =       34491.6029                   RCH =        1984.9889     RCH_MSW                          

            TOTAL IN =      159407.0833              TOTAL IN =        5130.9311

          OUT:                                     OUT:
          ----                                     ----
              STO-SS =           0.0000                STO-SS =           0.0000     STORAGE                          
                 DRN =        3450.3330                   DRN =         141.4912     DRN_SYS1                         
                 RIV =      143209.1038                   RIV =        4620.9554     RIV_SYS1                         
                 RIV =        9389.8361                   RIV =         368.4839     RIV_SYS2                         
                 RCH =        3357.8410                   RCH =           0.0000     RCH_MSW                          

           TOTAL OUT =      159407.1139             TOTAL OUT =        5130.9305

            IN - OUT =      -3.0610E-02              IN - OUT =       5.9335E-04

 PERCENT DISCREPANCY =          -0.00     PERCENT DISCREPANCY =           0.00




         TIME SUMMARY AT END OF TIME STEP    1 IN STRESS PERIOD   17
                    SECONDS     MINUTES      HOURS       DAYS        YEARS
                    -----------------------------------------------------------
   TIME STEP LENGTH  86400.      1440.0      24.000      1.0000     2.73785E-03
 STRESS PERIOD TIME  86400.      1440.0      24.000      1.0000     2.73785E-03
         TOTAL TIME 1.46880E+06  24480.      408.00      17.000     4.65435E-02


end timestep


start timestep kper="18" kstp="1" mode="normal"

 #Stressperiod Save Options

 BEGIN READING OUTPUT CONTROL FOR STRESS PERIOD 18
      ALL TIME STEPS WILL BE SAVED
      ALL TIME STEPS WILL BE SAVED

 END READING OUTPUT CONTROL FOR STRESS PERIOD 18


 PROCESSING STORAGE PERIOD DATA
 END PROCESSING STORAGE PERIOD DATA


 STRESS PERIOD 18 IS TRANSIENT


 REUSING DRNS FROM LAST STRESS PERIOD

 REUSING RIVS FROM LAST STRESS PERIOD

 REUSING RIVS FROM LAST STRESS PERIOD

 REUSING RCHS FROM LAST STRESS PERIOD
 UBDSV06 SAVING              DRN IN MODEL GWF_1            PACKAGE GWF_1           CONNECTED TO MODEL GWF_1            PACKAGE DRN_SYS1         ON UNIT   1018 AT TIME STEP      1, STRESS PERIOD     18
 UBDSV06 SAVING              RIV IN MODEL GWF_1            PACKAGE GWF_1           CONNECTED TO MODEL GWF_1            PACKAGE RIV_SYS1         ON UNIT   1018 AT TIME STEP      1, STRESS PERIOD     18
 UBDSV06 SAVING              RIV IN MODEL GWF_1            PACKAGE GWF_1           CONNECTED TO MODEL GWF_1            PACKAGE RIV_SYS2         ON UNIT   1018 AT TIME STEP      1, STRESS PERIOD     18
 UBDSV06 SAVING              RCH IN MODEL GWF_1            PACKAGE GWF_1           CONNECTED TO MODEL GWF_1            PACKAGE RCH_MSW          ON UNIT   1018 AT TIME STEP      1, STRESS PERIOD     18

 HEAD WILL BE SAVED ON UNIT 1017 AT END OF TIME STEP    1, STRESS PERIOD   18


  VOLUME BUDGET FOR ENTIRE MODEL AT END OF TIME STEP    1, STRESS PERIOD  18
  ---------------------------------------------------------------------------------------------------

     CUMULATIVE VOLUME      L**3       RATES FOR THIS TIME STEP      L**3/T          PACKAGE NAME    
     ------------------                 ------------------------                     ----------------

           IN:                                      IN:
           ---                                      ---
              STO-SS =      127323.9098                STO-SS =        2911.5954     STORAGE                          
                 DRN =           0.0000                   DRN =           0.0000     DRN_SYS1                         
                 RIV =         659.0881                   RIV =         155.9222     RIV_SYS1                         
                 RIV =           0.0000                   RIV =           0.0000     RIV_SYS2                         
                 RCH =       36355.0721                   RCH =        1863.4691     RCH_MSW                          

            TOTAL IN =      164338.0700              TOTAL IN =        4930.9867

          OUT:                                     OUT:
          ----                                     ----
              STO-SS =           0.0000                STO-SS =           0.0000     STORAGE                          
                 DRN =        3586.4646                   DRN =         136.1315     DRN_SYS1                         
                 RIV =      147650.0248                   RIV =        4440.9210     RIV_SYS1                         
                 RIV =        9743.7749                   RIV =         353.9388     RIV_SYS2                         
                 RCH =        3357.8410                   RCH =           0.0000     RCH_MSW                          

           TOTAL OUT =      164338.1053             TOTAL OUT =        4930.9914

            IN - OUT =      -3.5267E-02              IN - OUT =      -4.6565E-03

 PERCENT DISCREPANCY =          -0.00     PERCENT DISCREPANCY =          -0.00




         TIME SUMMARY AT END OF TIME STEP    1 IN STRESS PERIOD   18
                    SECONDS     MINUTES      HOURS       DAYS        YEARS
                    -----------------------------------------------------------
   TIME STEP LENGTH  86400.      1440.0      24.000      1.0000     2.73785E-03
 STRESS PERIOD TIME  86400.      1440.0      24.000      1.0000     2.73785E-03
         TOTAL TIME 1.55520E+06  25920.      432.00      18.000     4.92813E-02


end timestep


start timestep kper="19" kstp="1" mode="normal"

 #Stressperiod Save Options

 BEGIN READING OUTPUT CONTROL FOR STRESS PERIOD 19
      ALL TIME STEPS WILL BE SAVED
      ALL TIME STEPS WILL BE SAVED

 END READING OUTPUT CONTROL FOR STRESS PERIOD 19


 PROCESSING STORAGE PERIOD DATA
 END PROCESSING STORAGE PERIOD DATA


 STRESS PERIOD 19 IS TRANSIENT


 REUSING DRNS FROM LAST STRESS PERIOD

 REUSING RIVS FROM LAST STRESS PERIOD

 REUSING RIVS FROM LAST STRESS PERIOD

 REUSING RCHS FROM LAST STRESS PERIOD
 UBDSV06 SAVING              DRN IN MODEL GWF_1            PACKAGE GWF_1           CONNECTED TO MODEL GWF_1            PACKAGE DRN_SYS1         ON UNIT   1018 AT TIME STEP      1, STRESS PERIOD     19
 UBDSV06 SAVING              RIV IN MODEL GWF_1            PACKAGE GWF_1           CONNECTED TO MODEL GWF_1            PACKAGE RIV_SYS1         ON UNIT   1018 AT TIME STEP      1, STRESS PERIOD     19
 UBDSV06 SAVING              RIV IN MODEL GWF_1            PACKAGE GWF_1           CONNECTED TO MODEL GWF_1            PACKAGE RIV_SYS2         ON UNIT   1018 AT TIME STEP      1, STRESS PERIOD     19
 UBDSV06 SAVING              RCH IN MODEL GWF_1            PACKAGE GWF_1           CONNECTED TO MODEL GWF_1            PACKAGE RCH_MSW          ON UNIT   1018 AT TIME STEP      1, STRESS PERIOD     19

 HEAD WILL BE SAVED ON UNIT 1017 AT END OF TIME STEP    1, STRESS PERIOD   19


  VOLUME BUDGET FOR ENTIRE MODEL AT END OF TIME STEP    1, STRESS PERIOD  19
  ---------------------------------------------------------------------------------------------------

     CUMULATIVE VOLUME      L**3       RATES FOR THIS TIME STEP      L**3/T          PACKAGE NAME    
     ------------------                 ------------------------                     ----------------

           IN:                                      IN:
           ---                                      ---
              STO-SS =      130080.0976                STO-SS =        2756.1877     STORAGE                          
                 DRN =           0.0000                   DRN =           0.0000     DRN_SYS1                         
                 RIV =         846.7000                   RIV =         187.6120     RIV_SYS1                         
                 RIV =           0.0000                   RIV =           0.0000     RIV_SYS2                         
                 RCH =       38165.0986                   RCH =        1810.0265     RCH_MSW                          

            TOTAL IN =      169091.8962              TOTAL IN =        4753.8262

          OUT:                                     OUT:
          ----                                     ----
              STO-SS =           0.0000                STO-SS =           0.0000     STORAGE                          
                 DRN =        3717.4925                   DRN =         131.0280     DRN_SYS1                         
                 RIV =      151932.6207                   RIV =        4282.5958     RIV_SYS1                         
                 RIV =       10083.9778                   RIV =         340.2029     RIV_SYS2                         
                 RCH =        3357.8410                   RCH =           0.0000     RCH_MSW                          

           TOTAL OUT =      169091.9320             TOTAL OUT =        4753.8268

            IN - OUT =      -3.5826E-02              IN - OUT =      -5.5922E-04

 PERCENT DISCREPANCY =          -0.00     PERCENT DISCREPANCY =          -0.00




         TIME SUMMARY AT END OF TIME STEP    1 IN STRESS PERIOD   19
                    SECONDS     MINUTES      HOURS       DAYS        YEARS
                    -----------------------------------------------------------
   TIME STEP LENGTH  86400.      1440.0      24.000      1.0000     2.73785E-03
 STRESS PERIOD TIME  86400.      1440.0      24.000      1.0000     2.73785E-03
         TOTAL TIME 1.64160E+06  27360.      456.00      19.000     5.20192E-02


end timestep


start timestep kper="20" kstp="1" mode="normal"

 #Stressperiod Save Options

 BEGIN READING OUTPUT CONTROL FOR STRESS PERIOD 20
      ALL TIME STEPS WILL BE SAVED
      ALL TIME STEPS WILL BE SAVED

 END READING OUTPUT CONTROL FOR STRESS PERIOD 20


 PROCESSING STORAGE PERIOD DATA
 END PROCESSING STORAGE PERIOD DATA


 STRESS PERIOD 20 IS TRANSIENT


 REUSING DRNS FROM LAST STRESS PERIOD

 REUSING RIVS FROM LAST STRESS PERIOD

 REUSING RIVS FROM LAST STRESS PERIOD

 REUSING RCHS FROM LAST STRESS PERIOD
 UBDSV06 SAVING              DRN IN MODEL GWF_1            PACKAGE GWF_1           CONNECTED TO MODEL GWF_1            PACKAGE DRN_SYS1         ON UNIT   1018 AT TIME STEP      1, STRESS PERIOD     20
 UBDSV06 SAVING              RIV IN MODEL GWF_1            PACKAGE GWF_1           CONNECTED TO MODEL GWF_1            PACKAGE RIV_SYS1         ON UNIT   1018 AT TIME STEP      1, STRESS PERIOD     20
 UBDSV06 SAVING              RIV IN MODEL GWF_1            PACKAGE GWF_1           CONNECTED TO MODEL GWF_1            PACKAGE RIV_SYS2         ON UNIT   1018 AT TIME STEP      1, STRESS PERIOD     20
 UBDSV06 SAVING              RCH IN MODEL GWF_1            PACKAGE GWF_1           CONNECTED TO MODEL GWF_1            PACKAGE RCH_MSW          ON UNIT   1018 AT TIME STEP      1, STRESS PERIOD     20

 HEAD WILL BE SAVED ON UNIT 1017 AT END OF TIME STEP    1, STRESS PERIOD   20


  VOLUME BUDGET FOR ENTIRE MODEL AT END OF TIME STEP    1, STRESS PERIOD  20
  ---------------------------------------------------------------------------------------------------

     CUMULATIVE VOLUME      L**3       RATES FOR THIS TIME STEP      L**3/T          PACKAGE NAME    
     ------------------                 ------------------------                     ----------------

           IN:                                      IN:
           ---                                      ---
              STO-SS =      132697.6047                STO-SS =        2617.5071     STORAGE                          
                 DRN =           0.0000                   DRN =           0.0000     DRN_SYS1                         
                 RIV =        1066.0778                   RIV =         219.3778     RIV_SYS1                         
                 RIV =           0.0000                   RIV =           0.0000     RIV_SYS2                         
                 RCH =       39918.2251                   RCH =        1753.1265     RCH_MSW                          

            TOTAL IN =      173681.9076              TOTAL IN =        4590.0114

          OUT:                                     OUT:
          ----                                     ----
              STO-SS =           0.0000                STO-SS =           0.0000     STORAGE                          
                 DRN =        3843.6736                   DRN =         126.1811     DRN_SYS1                         
                 RIV =      156069.1944                   RIV =        4136.5737     RIV_SYS1                         
                 RIV =       10411.2332                   RIV =         327.2553     RIV_SYS2                         
                 RCH =        3357.8410                   RCH =           0.0000     RCH_MSW                          

           TOTAL OUT =      173681.9421             TOTAL OUT =        4590.0100

            IN - OUT =      -3.4427E-02              IN - OUT =       1.3990E-03

 PERCENT DISCREPANCY =          -0.00     PERCENT DISCREPANCY =           0.00




         TIME SUMMARY AT END OF TIME STEP    1 IN STRESS PERIOD   20
                    SECONDS     MINUTES      HOURS       DAYS        YEARS
                    -----------------------------------------------------------
   TIME STEP LENGTH  86400.      1440.0      24.000      1.0000     2.73785E-03
 STRESS PERIOD TIME  86400.      1440.0      24.000      1.0000     2.73785E-03
         TOTAL TIME 1.72800E+06  28800.      480.00      20.000     5.47570E-02


end timestep


start timestep kper="21" kstp="1" mode="normal"

 #Stressperiod Save Options

 BEGIN READING OUTPUT CONTROL FOR STRESS PERIOD 21
      ALL TIME STEPS WILL BE SAVED
      ALL TIME STEPS WILL BE SAVED

 END READING OUTPUT CONTROL FOR STRESS PERIOD 21


 PROCESSING STORAGE PERIOD DATA
 END PROCESSING STORAGE PERIOD DATA


 STRESS PERIOD 21 IS TRANSIENT


 REUSING DRNS FROM LAST STRESS PERIOD

 REUSING RIVS FROM LAST STRESS PERIOD

 REUSING RIVS FROM LAST STRESS PERIOD

 REUSING RCHS FROM LAST STRESS PERIOD
 UBDSV06 SAVING              DRN IN MODEL GWF_1            PACKAGE GWF_1           CONNECTED TO MODEL GWF_1            PACKAGE DRN_SYS1         ON UNIT   1018 AT TIME STEP      1, STRESS PERIOD     21
 UBDSV06 SAVING              RIV IN MODEL GWF_1            PACKAGE GWF_1           CONNECTED TO MODEL GWF_1            PACKAGE RIV_SYS1         ON UNIT   1018 AT TIME STEP      1, STRESS PERIOD     21
 UBDSV06 SAVING              RIV IN MODEL GWF_1            PACKAGE GWF_1           CONNECTED TO MODEL GWF_1            PACKAGE RIV_SYS2         ON UNIT   1018 AT TIME STEP      1, STRESS PERIOD     21
 UBDSV06 SAVING              RCH IN MODEL GWF_1            PACKAGE GWF_1           CONNECTED TO MODEL GWF_1            PACKAGE RCH_MSW          ON UNIT   1018 AT TIME STEP      1, STRESS PERIOD     21

 HEAD WILL BE SAVED ON UNIT 1017 AT END OF TIME STEP    1, STRESS PERIOD   21


  VOLUME BUDGET FOR ENTIRE MODEL AT END OF TIME STEP    1, STRESS PERIOD  21
  ---------------------------------------------------------------------------------------------------

     CUMULATIVE VOLUME      L**3       RATES FOR THIS TIME STEP      L**3/T          PACKAGE NAME    
     ------------------                 ------------------------                     ----------------

           IN:                                      IN:
           ---                                      ---
              STO-SS =      135198.0293                STO-SS =        2500.4245     STORAGE                          
                 DRN =           0.0000                   DRN =           0.0000     DRN_SYS1                         
                 RIV =        1317.5409                   RIV =         251.4631     RIV_SYS1                         
                 RIV =           0.0000                   RIV =           0.0000     RIV_SYS2                         
                 RCH =       41603.2074                   RCH =        1684.9823     RCH_MSW                          

            TOTAL IN =      178118.7776              TOTAL IN =        4436.8700

          OUT:                                     OUT:
          ----                                     ----
              STO-SS =           0.0000                STO-SS =           0.0000     STORAGE                          
                 DRN =        3965.2351                   DRN =         121.5615     DRN_SYS1                         
                 RIV =      160069.5056                   RIV =        4000.3112     RIV_SYS1                         
                 RIV =       10726.2509                   RIV =         315.0178     RIV_SYS2                         
                 RCH =        3357.8410                   RCH =           0.0000     RCH_MSW                          

           TOTAL OUT =      178118.8326             TOTAL OUT =        4436.8905

            IN - OUT =      -5.4986E-02              IN - OUT =      -2.0559E-02

 PERCENT DISCREPANCY =          -0.00     PERCENT DISCREPANCY =          -0.00




         TIME SUMMARY AT END OF TIME STEP    1 IN STRESS PERIOD   21
                    SECONDS     MINUTES      HOURS       DAYS        YEARS
                    -----------------------------------------------------------
   TIME STEP LENGTH  86400.      1440.0      24.000      1.0000     2.73785E-03
 STRESS PERIOD TIME  86400.      1440.0      24.000      1.0000     2.73785E-03
         TOTAL TIME 1.81440E+06  30240.      504.00      21.000     5.74949E-02


end timestep


start timestep kper="22" kstp="1" mode="normal"

 #Stressperiod Save Options

 BEGIN READING OUTPUT CONTROL FOR STRESS PERIOD 22
      ALL TIME STEPS WILL BE SAVED
      ALL TIME STEPS WILL BE SAVED

 END READING OUTPUT CONTROL FOR STRESS PERIOD 22


 PROCESSING STORAGE PERIOD DATA
 END PROCESSING STORAGE PERIOD DATA


 STRESS PERIOD 22 IS TRANSIENT


 REUSING DRNS FROM LAST STRESS PERIOD

 REUSING RIVS FROM LAST STRESS PERIOD

 REUSING RIVS FROM LAST STRESS PERIOD

 REUSING RCHS FROM LAST STRESS PERIOD
 UBDSV06 SAVING              DRN IN MODEL GWF_1            PACKAGE GWF_1           CONNECTED TO MODEL GWF_1            PACKAGE DRN_SYS1         ON UNIT   1018 AT TIME STEP      1, STRESS PERIOD     22
 UBDSV06 SAVING              RIV IN MODEL GWF_1            PACKAGE GWF_1           CONNECTED TO MODEL GWF_1            PACKAGE RIV_SYS1         ON UNIT   1018 AT TIME STEP      1, STRESS PERIOD     22
 UBDSV06 SAVING              RIV IN MODEL GWF_1            PACKAGE GWF_1           CONNECTED TO MODEL GWF_1            PACKAGE RIV_SYS2         ON UNIT   1018 AT TIME STEP      1, STRESS PERIOD     22
 UBDSV06 SAVING              RCH IN MODEL GWF_1            PACKAGE GWF_1           CONNECTED TO MODEL GWF_1            PACKAGE RCH_MSW          ON UNIT   1018 AT TIME STEP      1, STRESS PERIOD     22

 HEAD WILL BE SAVED ON UNIT 1017 AT END OF TIME STEP    1, STRESS PERIOD   22


  VOLUME BUDGET FOR ENTIRE MODEL AT END OF TIME STEP    1, STRESS PERIOD  22
  ---------------------------------------------------------------------------------------------------

     CUMULATIVE VOLUME      L**3       RATES FOR THIS TIME STEP      L**3/T          PACKAGE NAME    
     ------------------                 ------------------------                     ----------------

           IN:                                      IN:
           ---                                      ---
              STO-SS =      137566.7864                STO-SS =        2368.7572     STORAGE                          
                 DRN =           0.0000                   DRN =           0.0000     DRN_SYS1                         
                 RIV =        1599.6010                   RIV =         282.0600     RIV_SYS1                         
                 RIV =           0.0000                   RIV =           0.0000     RIV_SYS2                         
                 RCH =       43247.3941                   RCH =        1644.1867     RCH_MSW                          

            TOTAL IN =      182413.7815              TOTAL IN =        4295.0039

          OUT:                                     OUT:
          ----                                     ----
              STO-SS =           0.0000                STO-SS =           0.0000     STORAGE                          
                 DRN =        4082.3983                   DRN =         117.1631     DRN_SYS1                         
                 RIV =      163943.8697                   RIV =        3874.3641     RIV_SYS1                         
                 RIV =       11029.7306                   RIV =         303.4796     RIV_SYS2                         
                 RCH =        3357.8410                   RCH =           0.0000     RCH_MSW                          

           TOTAL OUT =      182413.8394             TOTAL OUT =        4295.0068

            IN - OUT =      -5.7953E-02              IN - OUT =      -2.9667E-03

 PERCENT DISCREPANCY =          -0.00     PERCENT DISCREPANCY =          -0.00




         TIME SUMMARY AT END OF TIME STEP    1 IN STRESS PERIOD   22
                    SECONDS     MINUTES      HOURS       DAYS        YEARS
                    -----------------------------------------------------------
   TIME STEP LENGTH  86400.      1440.0      24.000      1.0000     2.73785E-03
 STRESS PERIOD TIME  86400.      1440.0      24.000      1.0000     2.73785E-03
         TOTAL TIME 1.90080E+06  31680.      528.00      22.000     6.02327E-02


end timestep


start timestep kper="23" kstp="1" mode="normal"

 #Stressperiod Save Options

 BEGIN READING OUTPUT CONTROL FOR STRESS PERIOD 23
      ALL TIME STEPS WILL BE SAVED
      ALL TIME STEPS WILL BE SAVED

 END READING OUTPUT CONTROL FOR STRESS PERIOD 23


 PROCESSING STORAGE PERIOD DATA
 END PROCESSING STORAGE PERIOD DATA


 STRESS PERIOD 23 IS TRANSIENT


 REUSING DRNS FROM LAST STRESS PERIOD

 REUSING RIVS FROM LAST STRESS PERIOD

 REUSING RIVS FROM LAST STRESS PERIOD

 REUSING RCHS FROM LAST STRESS PERIOD
 UBDSV06 SAVING              DRN IN MODEL GWF_1            PACKAGE GWF_1           CONNECTED TO MODEL GWF_1            PACKAGE DRN_SYS1         ON UNIT   1018 AT TIME STEP      1, STRESS PERIOD     23
 UBDSV06 SAVING              RIV IN MODEL GWF_1            PACKAGE GWF_1           CONNECTED TO MODEL GWF_1            PACKAGE RIV_SYS1         ON UNIT   1018 AT TIME STEP      1, STRESS PERIOD     23
 UBDSV06 SAVING              RIV IN MODEL GWF_1            PACKAGE GWF_1           CONNECTED TO MODEL GWF_1            PACKAGE RIV_SYS2         ON UNIT   1018 AT TIME STEP      1, STRESS PERIOD     23
 UBDSV06 SAVING              RCH IN MODEL GWF_1            PACKAGE GWF_1           CONNECTED TO MODEL GWF_1            PACKAGE RCH_MSW          ON UNIT   1018 AT TIME STEP      1, STRESS PERIOD     23

 HEAD WILL BE SAVED ON UNIT 1017 AT END OF TIME STEP    1, STRESS PERIOD   23


  VOLUME BUDGET FOR ENTIRE MODEL AT END OF TIME STEP    1, STRESS PERIOD  23
  ---------------------------------------------------------------------------------------------------

     CUMULATIVE VOLUME      L**3       RATES FOR THIS TIME STEP      L**3/T          PACKAGE NAME    
     ------------------                 ------------------------                     ----------------

           IN:                                      IN:
           ---                                      ---
              STO-SS =      139073.3888                STO-SS =        1506.6024     STORAGE                          
                 DRN =           0.0000                   DRN =           0.0000     DRN_SYS1                         
                 RIV =        1889.3354                   RIV =         289.7344     RIV_SYS1                         
                 RIV =           0.0000                   RIV =           0.0000     RIV_SYS2                         
                 RCH =       45733.6403                   RCH =        2486.2462     RCH_MSW                          

            TOTAL IN =      186696.3645              TOTAL IN =        4282.5830

          OUT:                                     OUT:
          ----                                     ----
              STO-SS =          16.4042                STO-SS =          16.4042     STORAGE                          
                 DRN =        4196.3957                   DRN =         113.9974     DRN_SYS1                         
                 RIV =      167800.6920                   RIV =        3856.8223     RIV_SYS1                         
                 RIV =       11325.0912                   RIV =         295.3606     RIV_SYS2                         
                 RCH =        3357.8410                   RCH =           0.0000     RCH_MSW                          

           TOTAL OUT =      186696.4239             TOTAL OUT =        4282.5845

            IN - OUT =      -5.9391E-02              IN - OUT =      -1.4380E-03

 PERCENT DISCREPANCY =          -0.00     PERCENT DISCREPANCY =          -0.00




         TIME SUMMARY AT END OF TIME STEP    1 IN STRESS PERIOD   23
                    SECONDS     MINUTES      HOURS       DAYS        YEARS
                    -----------------------------------------------------------
   TIME STEP LENGTH  86400.      1440.0      24.000      1.0000     2.73785E-03
 STRESS PERIOD TIME  86400.      1440.0      24.000      1.0000     2.73785E-03
         TOTAL TIME 1.98720E+06  33120.      552.00      23.000     6.29706E-02


end timestep


start timestep kper="24" kstp="1" mode="normal"

 #Stressperiod Save Options

 BEGIN READING OUTPUT CONTROL FOR STRESS PERIOD 24
      ALL TIME STEPS WILL BE SAVED
      ALL TIME STEPS WILL BE SAVED

 END READING OUTPUT CONTROL FOR STRESS PERIOD 24


 PROCESSING STORAGE PERIOD DATA
 END PROCESSING STORAGE PERIOD DATA


 STRESS PERIOD 24 IS TRANSIENT


 REUSING DRNS FROM LAST STRESS PERIOD

 REUSING RIVS FROM LAST STRESS PERIOD

 REUSING RIVS FROM LAST STRESS PERIOD

 REUSING RCHS FROM LAST STRESS PERIOD
 UBDSV06 SAVING              DRN IN MODEL GWF_1            PACKAGE GWF_1           CONNECTED TO MODEL GWF_1            PACKAGE DRN_SYS1         ON UNIT   1018 AT TIME STEP      1, STRESS PERIOD     24
 UBDSV06 SAVING              RIV IN MODEL GWF_1            PACKAGE GWF_1           CONNECTED TO MODEL GWF_1            PACKAGE RIV_SYS1         ON UNIT   1018 AT TIME STEP      1, STRESS PERIOD     24
 UBDSV06 SAVING              RIV IN MODEL GWF_1            PACKAGE GWF_1           CONNECTED TO MODEL GWF_1            PACKAGE RIV_SYS2         ON UNIT   1018 AT TIME STEP      1, STRESS PERIOD     24
 UBDSV06 SAVING              RCH IN MODEL GWF_1            PACKAGE GWF_1           CONNECTED TO MODEL GWF_1            PACKAGE RCH_MSW          ON UNIT   1018 AT TIME STEP      1, STRESS PERIOD     24

 HEAD WILL BE SAVED ON UNIT 1017 AT END OF TIME STEP    1, STRESS PERIOD   24


  VOLUME BUDGET FOR ENTIRE MODEL AT END OF TIME STEP    1, STRESS PERIOD  24
  ---------------------------------------------------------------------------------------------------

     CUMULATIVE VOLUME      L**3       RATES FOR THIS TIME STEP      L**3/T          PACKAGE NAME    
     ------------------                 ------------------------                     ----------------

           IN:                                      IN:
           ---                                      ---
              STO-SS =      140302.8319                STO-SS =        1229.4431     STORAGE                          
                 DRN =           0.0000                   DRN =           0.0000     DRN_SYS1                         
                 RIV =        2184.5691                   RIV =         295.2337     RIV_SYS1                         
                 RIV =           0.0000                   RIV =           0.0000     RIV_SYS2                         
                 RCH =       48459.0986                   RCH =        2725.4583     RCH_MSW                          

            TOTAL IN =      190946.4996              TOTAL IN =        4250.1351

          OUT:                                     OUT:
          ----                                     ----
              STO-SS =          27.7445                STO-SS =          11.3403     STORAGE                          
                 DRN =        4307.7597                   DRN =         111.3641     DRN_SYS1                         
                 RIV =      171639.4433                   RIV =        3838.7514     RIV_SYS1                         
                 RIV =       11613.7710                   RIV =         288.6799     RIV_SYS2                         
                 RCH =        3357.8410                   RCH =           0.0000     RCH_MSW                          

           TOTAL OUT =      190946.5595             TOTAL OUT =        4250.1356

            IN - OUT =      -5.9940E-02              IN - OUT =      -5.4882E-04

 PERCENT DISCREPANCY =          -0.00     PERCENT DISCREPANCY =          -0.00




         TIME SUMMARY AT END OF TIME STEP    1 IN STRESS PERIOD   24
                    SECONDS     MINUTES      HOURS       DAYS        YEARS
                    -----------------------------------------------------------
   TIME STEP LENGTH  86400.      1440.0      24.000      1.0000     2.73785E-03
 STRESS PERIOD TIME  86400.      1440.0      24.000      1.0000     2.73785E-03
         TOTAL TIME 2.07360E+06  34560.      576.00      24.000     6.57084E-02


end timestep


start timestep kper="25" kstp="1" mode="normal"

 #Stressperiod Save Options

 BEGIN READING OUTPUT CONTROL FOR STRESS PERIOD 25
      ALL TIME STEPS WILL BE SAVED
      ALL TIME STEPS WILL BE SAVED

 END READING OUTPUT CONTROL FOR STRESS PERIOD 25


 PROCESSING STORAGE PERIOD DATA
 END PROCESSING STORAGE PERIOD DATA


 STRESS PERIOD 25 IS TRANSIENT


 REUSING DRNS FROM LAST STRESS PERIOD

 REUSING RIVS FROM LAST STRESS PERIOD

 REUSING RIVS FROM LAST STRESS PERIOD

 REUSING RCHS FROM LAST STRESS PERIOD
 UBDSV06 SAVING              DRN IN MODEL GWF_1            PACKAGE GWF_1           CONNECTED TO MODEL GWF_1            PACKAGE DRN_SYS1         ON UNIT   1018 AT TIME STEP      1, STRESS PERIOD     25
 UBDSV06 SAVING              RIV IN MODEL GWF_1            PACKAGE GWF_1           CONNECTED TO MODEL GWF_1            PACKAGE RIV_SYS1         ON UNIT   1018 AT TIME STEP      1, STRESS PERIOD     25
 UBDSV06 SAVING              RIV IN MODEL GWF_1            PACKAGE GWF_1           CONNECTED TO MODEL GWF_1            PACKAGE RIV_SYS2         ON UNIT   1018 AT TIME STEP      1, STRESS PERIOD     25
 UBDSV06 SAVING              RCH IN MODEL GWF_1            PACKAGE GWF_1           CONNECTED TO MODEL GWF_1            PACKAGE RCH_MSW          ON UNIT   1018 AT TIME STEP      1, STRESS PERIOD     25

 HEAD WILL BE SAVED ON UNIT 1017 AT END OF TIME STEP    1, STRESS PERIOD   25


  VOLUME BUDGET FOR ENTIRE MODEL AT END OF TIME STEP    1, STRESS PERIOD  25
  ---------------------------------------------------------------------------------------------------

     CUMULATIVE VOLUME      L**3       RATES FOR THIS TIME STEP      L**3/T          PACKAGE NAME    
     ------------------                 ------------------------                     ----------------

           IN:                                      IN:
           ---                                      ---
              STO-SS =      141125.3861                STO-SS =         822.5542     STORAGE                          
                 DRN =           0.0000                   DRN =           0.0000     DRN_SYS1                         
                 RIV =        2474.5454                   RIV =         289.9763     RIV_SYS1                         
                 RIV =           0.0000                   RIV =           0.0000     RIV_SYS2                         
                 RCH =       51632.7272                   RCH =        3173.6285     RCH_MSW                          

            TOTAL IN =      195232.6586              TOTAL IN =        4286.1590

          OUT:                                     OUT:
          ----                                     ----
              STO-SS =          67.5288                STO-SS =          39.7843     STORAGE                          
                 DRN =        4417.2984                   DRN =         109.5387     DRN_SYS1                         
                 RIV =      175492.0770                   RIV =        3852.6336     RIV_SYS1                         
                 RIV =       11897.9743                   RIV =         284.2033     RIV_SYS2                         
                 RCH =        3357.8410                   RCH =           0.0000     RCH_MSW                          

           TOTAL OUT =      195232.7195             TOTAL OUT =        4286.1600

            IN - OUT =      -6.0876E-02              IN - OUT =      -9.3622E-04

 PERCENT DISCREPANCY =          -0.00     PERCENT DISCREPANCY =          -0.00




         TIME SUMMARY AT END OF TIME STEP    1 IN STRESS PERIOD   25
                    SECONDS     MINUTES      HOURS       DAYS        YEARS
                    -----------------------------------------------------------
   TIME STEP LENGTH  86400.      1440.0      24.000      1.0000     2.73785E-03
 STRESS PERIOD TIME  86400.      1440.0      24.000      1.0000     2.73785E-03
         TOTAL TIME 2.16000E+06  36000.      600.00      25.000     6.84463E-02


end timestep


start timestep kper="26" kstp="1" mode="normal"

 #Stressperiod Save Options

 BEGIN READING OUTPUT CONTROL FOR STRESS PERIOD 26
      ALL TIME STEPS WILL BE SAVED
      ALL TIME STEPS WILL BE SAVED

 END READING OUTPUT CONTROL FOR STRESS PERIOD 26


 PROCESSING STORAGE PERIOD DATA
 END PROCESSING STORAGE PERIOD DATA


 STRESS PERIOD 26 IS TRANSIENT


 REUSING DRNS FROM LAST STRESS PERIOD

 REUSING RIVS FROM LAST STRESS PERIOD

 REUSING RIVS FROM LAST STRESS PERIOD

 REUSING RCHS FROM LAST STRESS PERIOD
 UBDSV06 SAVING              DRN IN MODEL GWF_1            PACKAGE GWF_1           CONNECTED TO MODEL GWF_1            PACKAGE DRN_SYS1         ON UNIT   1018 AT TIME STEP      1, STRESS PERIOD     26
 UBDSV06 SAVING              RIV IN MODEL GWF_1            PACKAGE GWF_1           CONNECTED TO MODEL GWF_1            PACKAGE RIV_SYS1         ON UNIT   1018 AT TIME STEP      1, STRESS PERIOD     26
 UBDSV06 SAVING              RIV IN MODEL GWF_1            PACKAGE GWF_1           CONNECTED TO MODEL GWF_1            PACKAGE RIV_SYS2         ON UNIT   1018 AT TIME STEP      1, STRESS PERIOD     26
 UBDSV06 SAVING              RCH IN MODEL GWF_1            PACKAGE GWF_1           CONNECTED TO MODEL GWF_1            PACKAGE RCH_MSW          ON UNIT   1018 AT TIME STEP      1, STRESS PERIOD     26

 HEAD WILL BE SAVED ON UNIT 1017 AT END OF TIME STEP    1, STRESS PERIOD   26


  VOLUME BUDGET FOR ENTIRE MODEL AT END OF TIME STEP    1, STRESS PERIOD  26
  ---------------------------------------------------------------------------------------------------

     CUMULATIVE VOLUME      L**3       RATES FOR THIS TIME STEP      L**3/T          PACKAGE NAME    
     ------------------                 ------------------------                     ----------------

           IN:                                      IN:
           ---                                      ---
              STO-SS =      141772.2329                STO-SS =         646.8469     STORAGE                          
                 DRN =           0.0000                   DRN =           0.0000     DRN_SYS1                         
                 RIV =        2759.8374                   RIV =         285.2920     RIV_SYS1                         
                 RIV =           0.0000                   RIV =           0.0000     RIV_SYS2                         
                 RCH =       54971.1026                   RCH =        3338.3755     RCH_MSW                          

            TOTAL IN =      199503.1730              TOTAL IN =        4270.5144

          OUT:                                     OUT:
          ----                                     ----
              STO-SS =          93.1872                STO-SS =          25.6584     STORAGE                          
                 DRN =        4525.3697                   DRN =         108.0712     DRN_SYS1                         
                 RIV =      179348.1800                   RIV =        3856.1030     RIV_SYS1                         
                 RIV =       12178.6572                   RIV =         280.6829     RIV_SYS2                         
                 RCH =        3357.8410                   RCH =           0.0000     RCH_MSW                          

           TOTAL OUT =      199503.2350             TOTAL OUT =        4270.5155

            IN - OUT =      -6.2017E-02              IN - OUT =      -1.1413E-03

 PERCENT DISCREPANCY =          -0.00     PERCENT DISCREPANCY =          -0.00




         TIME SUMMARY AT END OF TIME STEP    1 IN STRESS PERIOD   26
                    SECONDS     MINUTES      HOURS       DAYS        YEARS
                    -----------------------------------------------------------
   TIME STEP LENGTH  86400.      1440.0      24.000      1.0000     2.73785E-03
 STRESS PERIOD TIME  86400.      1440.0      24.000      1.0000     2.73785E-03
         TOTAL TIME 2.24640E+06  37440.      624.00      26.000     7.11841E-02


end timestep


start timestep kper="27" kstp="1" mode="normal"

 #Stressperiod Save Options

 BEGIN READING OUTPUT CONTROL FOR STRESS PERIOD 27
      ALL TIME STEPS WILL BE SAVED
      ALL TIME STEPS WILL BE SAVED

 END READING OUTPUT CONTROL FOR STRESS PERIOD 27


 PROCESSING STORAGE PERIOD DATA
 END PROCESSING STORAGE PERIOD DATA


 STRESS PERIOD 27 IS TRANSIENT


 REUSING DRNS FROM LAST STRESS PERIOD

 REUSING RIVS FROM LAST STRESS PERIOD

 REUSING RIVS FROM LAST STRESS PERIOD

 REUSING RCHS FROM LAST STRESS PERIOD
 UBDSV06 SAVING              DRN IN MODEL GWF_1            PACKAGE GWF_1           CONNECTED TO MODEL GWF_1            PACKAGE DRN_SYS1         ON UNIT   1018 AT TIME STEP      1, STRESS PERIOD     27
 UBDSV06 SAVING              RIV IN MODEL GWF_1            PACKAGE GWF_1           CONNECTED TO MODEL GWF_1            PACKAGE RIV_SYS1         ON UNIT   1018 AT TIME STEP      1, STRESS PERIOD     27
 UBDSV06 SAVING              RIV IN MODEL GWF_1            PACKAGE GWF_1           CONNECTED TO MODEL GWF_1            PACKAGE RIV_SYS2         ON UNIT   1018 AT TIME STEP      1, STRESS PERIOD     27
 UBDSV06 SAVING              RCH IN MODEL GWF_1            PACKAGE GWF_1           CONNECTED TO MODEL GWF_1            PACKAGE RCH_MSW          ON UNIT   1018 AT TIME STEP      1, STRESS PERIOD     27

 HEAD WILL BE SAVED ON UNIT 1017 AT END OF TIME STEP    1, STRESS PERIOD   27


  VOLUME BUDGET FOR ENTIRE MODEL AT END OF TIME STEP    1, STRESS PERIOD  27
  ---------------------------------------------------------------------------------------------------

     CUMULATIVE VOLUME      L**3       RATES FOR THIS TIME STEP      L**3/T          PACKAGE NAME    
     ------------------                 ------------------------                     ----------------

           IN:                                      IN:
           ---                                      ---
              STO-SS =      142091.9909                STO-SS =         319.7580     STORAGE                          
                 DRN =           0.0000                   DRN =           0.0000     DRN_SYS1                         
                 RIV =        3028.0431                   RIV =         268.2057     RIV_SYS1                         
                 RIV =           0.0000                   RIV =           0.0000     RIV_SYS2                         
                 RCH =       58775.8281                   RCH =        3804.7255     RCH_MSW                          

            TOTAL IN =      203895.8621              TOTAL IN =        4392.6891

          OUT:                                     OUT:
          ----                                     ----
              STO-SS =         199.7014                STO-SS =         106.5142     STORAGE                          
                 DRN =        4632.7553                   DRN =         107.3856     DRN_SYS1                         
                 RIV =      183247.7533                   RIV =        3899.5733     RIV_SYS1                         
                 RIV =       12457.9210                   RIV =         279.2638     RIV_SYS2                         
                 RCH =        3357.8410                   RCH =           0.0000     RCH_MSW                          

           TOTAL OUT =      203895.9719             TOTAL OUT =        4392.7369

            IN - OUT =          -0.1098              IN - OUT =      -4.7817E-02

 PERCENT DISCREPANCY =          -0.00     PERCENT DISCREPANCY =          -0.00




         TIME SUMMARY AT END OF TIME STEP    1 IN STRESS PERIOD   27
                    SECONDS     MINUTES      HOURS       DAYS        YEARS
                    -----------------------------------------------------------
   TIME STEP LENGTH  86400.      1440.0      24.000      1.0000     2.73785E-03
 STRESS PERIOD TIME  86400.      1440.0      24.000      1.0000     2.73785E-03
         TOTAL TIME 2.33280E+06  38880.      648.00      27.000     7.39220E-02


end timestep


start timestep kper="28" kstp="1" mode="normal"

 #Stressperiod Save Options

 BEGIN READING OUTPUT CONTROL FOR STRESS PERIOD 28
      ALL TIME STEPS WILL BE SAVED
      ALL TIME STEPS WILL BE SAVED

 END READING OUTPUT CONTROL FOR STRESS PERIOD 28


 PROCESSING STORAGE PERIOD DATA
 END PROCESSING STORAGE PERIOD DATA


 STRESS PERIOD 28 IS TRANSIENT


 REUSING DRNS FROM LAST STRESS PERIOD

 REUSING RIVS FROM LAST STRESS PERIOD

 REUSING RIVS FROM LAST STRESS PERIOD

 REUSING RCHS FROM LAST STRESS PERIOD
 UBDSV06 SAVING              DRN IN MODEL GWF_1            PACKAGE GWF_1           CONNECTED TO MODEL GWF_1            PACKAGE DRN_SYS1         ON UNIT   1018 AT TIME STEP      1, STRESS PERIOD     28
 UBDSV06 SAVING              RIV IN MODEL GWF_1            PACKAGE GWF_1           CONNECTED TO MODEL GWF_1            PACKAGE RIV_SYS1         ON UNIT   1018 AT TIME STEP      1, STRESS PERIOD     28
 UBDSV06 SAVING              RIV IN MODEL GWF_1            PACKAGE GWF_1           CONNECTED TO MODEL GWF_1            PACKAGE RIV_SYS2         ON UNIT   1018 AT TIME STEP      1, STRESS PERIOD     28
 UBDSV06 SAVING              RCH IN MODEL GWF_1            PACKAGE GWF_1           CONNECTED TO MODEL GWF_1            PACKAGE RCH_MSW          ON UNIT   1018 AT TIME STEP      1, STRESS PERIOD     28

 HEAD WILL BE SAVED ON UNIT 1017 AT END OF TIME STEP    1, STRESS PERIOD   28


  VOLUME BUDGET FOR ENTIRE MODEL AT END OF TIME STEP    1, STRESS PERIOD  28
  ---------------------------------------------------------------------------------------------------

     CUMULATIVE VOLUME      L**3       RATES FOR THIS TIME STEP      L**3/T          PACKAGE NAME    
     ------------------                 ------------------------                     ----------------

           IN:                                      IN:
           ---                                      ---
              STO-SS =      142403.7154                STO-SS =         311.7245     STORAGE                          
                 DRN =           0.0000                   DRN =           0.0000     DRN_SYS1                         
                 RIV =        3290.3475                   RIV =         262.3044     RIV_SYS1                         
                 RIV =           0.0000                   RIV =           0.0000     RIV_SYS2                         
                 RCH =       62506.6998                   RCH =        3730.8717     RCH_MSW                          

            TOTAL IN =      208200.7627              TOTAL IN =        4304.9006

          OUT:                                     OUT:
          ----                                     ----
              STO-SS =         227.4232                STO-SS =          27.7218     STORAGE                          
                 DRN =        4739.4116                   DRN =         106.6564     DRN_SYS1                         
                 RIV =      187140.5936                   RIV =        3892.8403     RIV_SYS1                         
                 RIV =       12735.6329                   RIV =         277.7119     RIV_SYS2                         
                 RCH =        3357.8410                   RCH =           0.0000     RCH_MSW                          

           TOTAL OUT =      208200.9023             TOTAL OUT =        4304.9304

            IN - OUT =          -0.1396              IN - OUT =      -2.9800E-02

 PERCENT DISCREPANCY =          -0.00     PERCENT DISCREPANCY =          -0.00




         TIME SUMMARY AT END OF TIME STEP    1 IN STRESS PERIOD   28
                    SECONDS     MINUTES      HOURS       DAYS        YEARS
                    -----------------------------------------------------------
   TIME STEP LENGTH  86400.      1440.0      24.000      1.0000     2.73785E-03
 STRESS PERIOD TIME  86400.      1440.0      24.000      1.0000     2.73785E-03
         TOTAL TIME 2.41920E+06  40320.      672.00      28.000     7.66598E-02


end timestep


start timestep kper="29" kstp="1" mode="normal"

 #Stressperiod Save Options

 BEGIN READING OUTPUT CONTROL FOR STRESS PERIOD 29
      ALL TIME STEPS WILL BE SAVED
      ALL TIME STEPS WILL BE SAVED

 END READING OUTPUT CONTROL FOR STRESS PERIOD 29


 PROCESSING STORAGE PERIOD DATA
 END PROCESSING STORAGE PERIOD DATA


 STRESS PERIOD 29 IS TRANSIENT


 REUSING DRNS FROM LAST STRESS PERIOD

 REUSING RIVS FROM LAST STRESS PERIOD

 REUSING RIVS FROM LAST STRESS PERIOD

 REUSING RCHS FROM LAST STRESS PERIOD
 UBDSV06 SAVING              DRN IN MODEL GWF_1            PACKAGE GWF_1           CONNECTED TO MODEL GWF_1            PACKAGE DRN_SYS1         ON UNIT   1018 AT TIME STEP      1, STRESS PERIOD     29
 UBDSV06 SAVING              RIV IN MODEL GWF_1            PACKAGE GWF_1           CONNECTED TO MODEL GWF_1            PACKAGE RIV_SYS1         ON UNIT   1018 AT TIME STEP      1, STRESS PERIOD     29
 UBDSV06 SAVING              RIV IN MODEL GWF_1            PACKAGE GWF_1           CONNECTED TO MODEL GWF_1            PACKAGE RIV_SYS2         ON UNIT   1018 AT TIME STEP      1, STRESS PERIOD     29
 UBDSV06 SAVING              RCH IN MODEL GWF_1            PACKAGE GWF_1           CONNECTED TO MODEL GWF_1            PACKAGE RCH_MSW          ON UNIT   1018 AT TIME STEP      1, STRESS PERIOD     29

 HEAD WILL BE SAVED ON UNIT 1017 AT END OF TIME STEP    1, STRESS PERIOD   29


  VOLUME BUDGET FOR ENTIRE MODEL AT END OF TIME STEP    1, STRESS PERIOD  29
  ---------------------------------------------------------------------------------------------------

     CUMULATIVE VOLUME      L**3       RATES FOR THIS TIME STEP      L**3/T          PACKAGE NAME    
     ------------------                 ------------------------                     ----------------

           IN:                                      IN:
           ---                                      ---
              STO-SS =      142843.7910                STO-SS =         440.0757     STORAGE                          
                 DRN =           0.0000                   DRN =           0.0000     DRN_SYS1                         
                 RIV =        3555.8931                   RIV =         265.5457     RIV_SYS1                         
                 RIV =           0.0000                   RIV =           0.0000     RIV_SYS2                         
                 RCH =       66042.7861                   RCH =        3536.0863     RCH_MSW                          

            TOTAL IN =      212442.4703              TOTAL IN =        4241.7077

          OUT:                                     OUT:
          ----                                     ----
              STO-SS =         230.0959                STO-SS =           2.6726     STORAGE                          
                 DRN =        4845.0825                   DRN =         105.6709     DRN_SYS1                         
                 RIV =      190998.5235                   RIV =        3857.9299     RIV_SYS1                         
                 RIV =       13011.0809                   RIV =         275.4480     RIV_SYS2                         
                 RCH =        3357.8410                   RCH =           0.0000     RCH_MSW                          

           TOTAL OUT =      212442.6238             TOTAL OUT =        4241.7215

            IN - OUT =          -0.1534              IN - OUT =      -1.3810E-02

 PERCENT DISCREPANCY =          -0.00     PERCENT DISCREPANCY =          -0.00




         TIME SUMMARY AT END OF TIME STEP    1 IN STRESS PERIOD   29
                    SECONDS     MINUTES      HOURS       DAYS        YEARS
                    -----------------------------------------------------------
   TIME STEP LENGTH  86400.      1440.0      24.000      1.0000     2.73785E-03
 STRESS PERIOD TIME  86400.      1440.0      24.000      1.0000     2.73785E-03
         TOTAL TIME 2.50560E+06  41760.      696.00      29.000     7.93977E-02


end timestep


start timestep kper="30" kstp="1" mode="normal"

 #Stressperiod Save Options

 BEGIN READING OUTPUT CONTROL FOR STRESS PERIOD 30
      ALL TIME STEPS WILL BE SAVED
      ALL TIME STEPS WILL BE SAVED

 END READING OUTPUT CONTROL FOR STRESS PERIOD 30


 PROCESSING STORAGE PERIOD DATA
 END PROCESSING STORAGE PERIOD DATA


 STRESS PERIOD 30 IS TRANSIENT


 REUSING DRNS FROM LAST STRESS PERIOD

 REUSING RIVS FROM LAST STRESS PERIOD

 REUSING RIVS FROM LAST STRESS PERIOD

 REUSING RCHS FROM LAST STRESS PERIOD
 UBDSV06 SAVING              DRN IN MODEL GWF_1            PACKAGE GWF_1           CONNECTED TO MODEL GWF_1            PACKAGE DRN_SYS1         ON UNIT   1018 AT TIME STEP      1, STRESS PERIOD     30
 UBDSV06 SAVING              RIV IN MODEL GWF_1            PACKAGE GWF_1           CONNECTED TO MODEL GWF_1            PACKAGE RIV_SYS1         ON UNIT   1018 AT TIME STEP      1, STRESS PERIOD     30
 UBDSV06 SAVING              RIV IN MODEL GWF_1            PACKAGE GWF_1           CONNECTED TO MODEL GWF_1            PACKAGE RIV_SYS2         ON UNIT   1018 AT TIME STEP      1, STRESS PERIOD     30
 UBDSV06 SAVING              RCH IN MODEL GWF_1            PACKAGE GWF_1           CONNECTED TO MODEL GWF_1            PACKAGE RCH_MSW          ON UNIT   1018 AT TIME STEP      1, STRESS PERIOD     30

 HEAD WILL BE SAVED ON UNIT 1017 AT END OF TIME STEP    1, STRESS PERIOD   30


  VOLUME BUDGET FOR ENTIRE MODEL AT END OF TIME STEP    1, STRESS PERIOD  30
  ---------------------------------------------------------------------------------------------------

     CUMULATIVE VOLUME      L**3       RATES FOR THIS TIME STEP      L**3/T          PACKAGE NAME    
     ------------------                 ------------------------                     ----------------

           IN:                                      IN:
           ---                                      ---
              STO-SS =      143441.7133                STO-SS =         597.9223     STORAGE                          
                 DRN =           0.0000                   DRN =           0.0000     DRN_SYS1                         
                 RIV =        3831.2543                   RIV =         275.3612     RIV_SYS1                         
                 RIV =           0.0000                   RIV =           0.0000     RIV_SYS2                         
                 RCH =       69348.5431                   RCH =        3305.7569     RCH_MSW                          

            TOTAL IN =      216621.5107              TOTAL IN =        4179.0403

          OUT:                                     OUT:
          ----                                     ----
              STO-SS =         230.1810                STO-SS =       8.5111E-02     STORAGE                          
                 DRN =        4949.4799                   DRN =         104.3973     DRN_SYS1                         
                 RIV =      194800.6732                   RIV =        3802.1497     RIV_SYS1                         
                 RIV =       13283.4955                   RIV =         272.4146     RIV_SYS2                         
                 RCH =        3357.8410                   RCH =           0.0000     RCH_MSW                          

           TOTAL OUT =      216621.6705             TOTAL OUT =        4179.0467

            IN - OUT =          -0.1598              IN - OUT =      -6.3745E-03

 PERCENT DISCREPANCY =          -0.00     PERCENT DISCREPANCY =          -0.00




         TIME SUMMARY AT END OF TIME STEP    1 IN STRESS PERIOD   30
                    SECONDS     MINUTES      HOURS       DAYS        YEARS
                    -----------------------------------------------------------
   TIME STEP LENGTH  86400.      1440.0      24.000      1.0000     2.73785E-03
 STRESS PERIOD TIME  86400.      1440.0      24.000      1.0000     2.73785E-03
         TOTAL TIME 2.59200E+06  43200.      720.00      30.000     8.21355E-02


end timestep


start timestep kper="31" kstp="1" mode="normal"

 #Stressperiod Save Options

 BEGIN READING OUTPUT CONTROL FOR STRESS PERIOD 31
      ALL TIME STEPS WILL BE SAVED
      ALL TIME STEPS WILL BE SAVED

 END READING OUTPUT CONTROL FOR STRESS PERIOD 31


 PROCESSING STORAGE PERIOD DATA
 END PROCESSING STORAGE PERIOD DATA


 STRESS PERIOD 31 IS TRANSIENT


 REUSING DRNS FROM LAST STRESS PERIOD

 REUSING RIVS FROM LAST STRESS PERIOD

 REUSING RIVS FROM LAST STRESS PERIOD

 REUSING RCHS FROM LAST STRESS PERIOD
 UBDSV06 SAVING              DRN IN MODEL GWF_1            PACKAGE GWF_1           CONNECTED TO MODEL GWF_1            PACKAGE DRN_SYS1         ON UNIT   1018 AT TIME STEP      1, STRESS PERIOD     31
 UBDSV06 SAVING              RIV IN MODEL GWF_1            PACKAGE GWF_1           CONNECTED TO MODEL GWF_1            PACKAGE RIV_SYS1         ON UNIT   1018 AT TIME STEP      1, STRESS PERIOD     31
 UBDSV06 SAVING              RIV IN MODEL GWF_1            PACKAGE GWF_1           CONNECTED TO MODEL GWF_1            PACKAGE RIV_SYS2         ON UNIT   1018 AT TIME STEP      1, STRESS PERIOD     31
 UBDSV06 SAVING              RCH IN MODEL GWF_1            PACKAGE GWF_1           CONNECTED TO MODEL GWF_1            PACKAGE RCH_MSW          ON UNIT   1018 AT TIME STEP      1, STRESS PERIOD     31

 HEAD WILL BE SAVED ON UNIT 1017 AT END OF TIME STEP    1, STRESS PERIOD   31


  VOLUME BUDGET FOR ENTIRE MODEL AT END OF TIME STEP    1, STRESS PERIOD  31
  ---------------------------------------------------------------------------------------------------

     CUMULATIVE VOLUME      L**3       RATES FOR THIS TIME STEP      L**3/T          PACKAGE NAME    
     ------------------                 ------------------------                     ----------------

           IN:                                      IN:
           ---                                      ---
              STO-SS =      144208.1169                STO-SS =         766.4036     STORAGE                          
                 DRN =           0.0000                   DRN =           0.0000     DRN_SYS1                         
                 RIV =        4122.4669                   RIV =         291.2126     RIV_SYS1                         
                 RIV =           0.0000                   RIV =           0.0000     RIV_SYS2                         
                 RCH =       72392.8627                   RCH =        3044.3196     RCH_MSW                          

            TOTAL IN =      220723.4464              TOTAL IN =        4101.9358

          OUT:                                     OUT:
          ----                                     ----
              STO-SS =         230.1810                STO-SS =           0.0000     STORAGE                          
                 DRN =        5052.3096                   DRN =         102.8298     DRN_SYS1                         
                 RIV =      198531.2093                   RIV =        3730.5361     RIV_SYS1                         
                 RIV =       13552.0660                   RIV =         268.5705     RIV_SYS2                         
                 RCH =        3357.8410                   RCH =           0.0000     RCH_MSW                          

           TOTAL OUT =      220723.6069             TOTAL OUT =        4101.9364

            IN - OUT =          -0.1605              IN - OUT =      -6.5845E-04

 PERCENT DISCREPANCY =          -0.00     PERCENT DISCREPANCY =          -0.00




         TIME SUMMARY AT END OF TIME STEP    1 IN STRESS PERIOD   31
                    SECONDS     MINUTES      HOURS       DAYS        YEARS
                    -----------------------------------------------------------
   TIME STEP LENGTH  86400.      1440.0      24.000      1.0000     2.73785E-03
 STRESS PERIOD TIME  86400.      1440.0      24.000      1.0000     2.73785E-03
         TOTAL TIME 2.67840E+06  44640.      744.00      31.000     8.48734E-02


end timestep


start timestep kper="32" kstp="1" mode="normal"

 #Stressperiod Save Options

 BEGIN READING OUTPUT CONTROL FOR STRESS PERIOD 32
      ALL TIME STEPS WILL BE SAVED
      ALL TIME STEPS WILL BE SAVED

 END READING OUTPUT CONTROL FOR STRESS PERIOD 32


 PROCESSING STORAGE PERIOD DATA
 END PROCESSING STORAGE PERIOD DATA


 STRESS PERIOD 32 IS TRANSIENT


 REUSING DRNS FROM LAST STRESS PERIOD

 REUSING RIVS FROM LAST STRESS PERIOD

 REUSING RIVS FROM LAST STRESS PERIOD

 REUSING RCHS FROM LAST STRESS PERIOD
 UBDSV06 SAVING              DRN IN MODEL GWF_1            PACKAGE GWF_1           CONNECTED TO MODEL GWF_1            PACKAGE DRN_SYS1         ON UNIT   1018 AT TIME STEP      1, STRESS PERIOD     32
 UBDSV06 SAVING              RIV IN MODEL GWF_1            PACKAGE GWF_1           CONNECTED TO MODEL GWF_1            PACKAGE RIV_SYS1         ON UNIT   1018 AT TIME STEP      1, STRESS PERIOD     32
 UBDSV06 SAVING              RIV IN MODEL GWF_1            PACKAGE GWF_1           CONNECTED TO MODEL GWF_1            PACKAGE RIV_SYS2         ON UNIT   1018 AT TIME STEP      1, STRESS PERIOD     32
 UBDSV06 SAVING              RCH IN MODEL GWF_1            PACKAGE GWF_1           CONNECTED TO MODEL GWF_1            PACKAGE RCH_MSW          ON UNIT   1018 AT TIME STEP      1, STRESS PERIOD     32

 HEAD WILL BE SAVED ON UNIT 1017 AT END OF TIME STEP    1, STRESS PERIOD   32


  VOLUME BUDGET FOR ENTIRE MODEL AT END OF TIME STEP    1, STRESS PERIOD  32
  ---------------------------------------------------------------------------------------------------

     CUMULATIVE VOLUME      L**3       RATES FOR THIS TIME STEP      L**3/T          PACKAGE NAME    
     ------------------                 ------------------------                     ----------------

           IN:                                      IN:
           ---                                      ---
              STO-SS =      145082.8503                STO-SS =         874.7335     STORAGE                          
                 DRN =           0.0000                   DRN =           0.0000     DRN_SYS1                         
                 RIV =        4432.0799                   RIV =         309.6130     RIV_SYS1                         
                 RIV =           0.0000                   RIV =           0.0000     RIV_SYS2                         
                 RCH =       75227.6536                   RCH =        2834.7910     RCH_MSW                          

            TOTAL IN =      224742.5839              TOTAL IN =        4019.1374

          OUT:                                     OUT:
          ----                                     ----
              STO-SS =         230.1810                STO-SS =           0.0000     STORAGE                          
                 DRN =        5153.3686                   DRN =         101.0590     DRN_SYS1                         
                 RIV =      202185.1018                   RIV =        3653.8925     RIV_SYS1                         
                 RIV =       13816.2530                   RIV =         264.1870     RIV_SYS2                         
                 RCH =        3357.8410                   RCH =           0.0000     RCH_MSW                          

           TOTAL OUT =      224742.7453             TOTAL OUT =        4019.1384

            IN - OUT =          -0.1615              IN - OUT =      -9.7800E-04

 PERCENT DISCREPANCY =          -0.00     PERCENT DISCREPANCY =          -0.00




         TIME SUMMARY AT END OF TIME STEP    1 IN STRESS PERIOD   32
                    SECONDS     MINUTES      HOURS       DAYS        YEARS
                    -----------------------------------------------------------
   TIME STEP LENGTH  86400.      1440.0      24.000      1.0000     2.73785E-03
 STRESS PERIOD TIME  86400.      1440.0      24.000      1.0000     2.73785E-03
         TOTAL TIME 2.76480E+06  46080.      768.00      32.000     8.76112E-02


end timestep


start timestep kper="33" kstp="1" mode="normal"

 #Stressperiod Save Options

 BEGIN READING OUTPUT CONTROL FOR STRESS PERIOD 33
      ALL TIME STEPS WILL BE SAVED
      ALL TIME STEPS WILL BE SAVED

 END READING OUTPUT CONTROL FOR STRESS PERIOD 33


 PROCESSING STORAGE PERIOD DATA
 END PROCESSING STORAGE PERIOD DATA


 STRESS PERIOD 33 IS TRANSIENT


 REUSING DRNS FROM LAST STRESS PERIOD

 REUSING RIVS FROM LAST STRESS PERIOD

 REUSING RIVS FROM LAST STRESS PERIOD

 REUSING RCHS FROM LAST STRESS PERIOD
 UBDSV06 SAVING              DRN IN MODEL GWF_1            PACKAGE GWF_1           CONNECTED TO MODEL GWF_1            PACKAGE DRN_SYS1         ON UNIT   1018 AT TIME STEP      1, STRESS PERIOD     33
 UBDSV06 SAVING              RIV IN MODEL GWF_1            PACKAGE GWF_1           CONNECTED TO MODEL GWF_1            PACKAGE RIV_SYS1         ON UNIT   1018 AT TIME STEP      1, STRESS PERIOD     33
 UBDSV06 SAVING              RIV IN MODEL GWF_1            PACKAGE GWF_1           CONNECTED TO MODEL GWF_1            PACKAGE RIV_SYS2         ON UNIT   1018 AT TIME STEP      1, STRESS PERIOD     33
 UBDSV06 SAVING              RCH IN MODEL GWF_1            PACKAGE GWF_1           CONNECTED TO MODEL GWF_1            PACKAGE RCH_MSW          ON UNIT   1018 AT TIME STEP      1, STRESS PERIOD     33

 HEAD WILL BE SAVED ON UNIT 1017 AT END OF TIME STEP    1, STRESS PERIOD   33


  VOLUME BUDGET FOR ENTIRE MODEL AT END OF TIME STEP    1, STRESS PERIOD  33
  ---------------------------------------------------------------------------------------------------

     CUMULATIVE VOLUME      L**3       RATES FOR THIS TIME STEP      L**3/T          PACKAGE NAME    
     ------------------                 ------------------------                     ----------------

           IN:                                      IN:
           ---                                      ---
              STO-SS =      146063.4058                STO-SS =         980.5555     STORAGE                          
                 DRN =           0.0000                   DRN =           0.0000     DRN_SYS1                         
                 RIV =        4762.2747                   RIV =         330.1949     RIV_SYS1                         
                 RIV =           0.0000                   RIV =           0.0000     RIV_SYS2                         
                 RCH =       77848.6187                   RCH =        2620.9651     RCH_MSW                          

            TOTAL IN =      228674.2993              TOTAL IN =        3931.7154

          OUT:                                     OUT:
          ----                                     ----
              STO-SS =         230.1810                STO-SS =           0.0000     STORAGE                          
                 DRN =        5252.4659                   DRN =          99.0973     DRN_SYS1                         
                 RIV =      205758.4445                   RIV =        3573.3427     RIV_SYS1                         
                 RIV =       14075.5282                   RIV =         259.2752     RIV_SYS2                         
                 RCH =        3357.8410                   RCH =           0.0000     RCH_MSW                          

           TOTAL OUT =      228674.4605             TOTAL OUT =        3931.7152

            IN - OUT =          -0.1613              IN - OUT =       1.9577E-04

 PERCENT DISCREPANCY =          -0.00     PERCENT DISCREPANCY =           0.00




         TIME SUMMARY AT END OF TIME STEP    1 IN STRESS PERIOD   33
                    SECONDS     MINUTES      HOURS       DAYS        YEARS
                    -----------------------------------------------------------
   TIME STEP LENGTH  86400.      1440.0      24.000      1.0000     2.73785E-03
 STRESS PERIOD TIME  86400.      1440.0      24.000      1.0000     2.73785E-03
         TOTAL TIME 2.85120E+06  47520.      792.00      33.000     9.03491E-02


end timestep


start timestep kper="34" kstp="1" mode="normal"

 #Stressperiod Save Options

 BEGIN READING OUTPUT CONTROL FOR STRESS PERIOD 34
      ALL TIME STEPS WILL BE SAVED
      ALL TIME STEPS WILL BE SAVED

 END READING OUTPUT CONTROL FOR STRESS PERIOD 34


 PROCESSING STORAGE PERIOD DATA
 END PROCESSING STORAGE PERIOD DATA


 STRESS PERIOD 34 IS TRANSIENT


 REUSING DRNS FROM LAST STRESS PERIOD

 REUSING RIVS FROM LAST STRESS PERIOD

 REUSING RIVS FROM LAST STRESS PERIOD

 REUSING RCHS FROM LAST STRESS PERIOD
 UBDSV06 SAVING              DRN IN MODEL GWF_1            PACKAGE GWF_1           CONNECTED TO MODEL GWF_1            PACKAGE DRN_SYS1         ON UNIT   1018 AT TIME STEP      1, STRESS PERIOD     34
 UBDSV06 SAVING              RIV IN MODEL GWF_1            PACKAGE GWF_1           CONNECTED TO MODEL GWF_1            PACKAGE RIV_SYS1         ON UNIT   1018 AT TIME STEP      1, STRESS PERIOD     34
 UBDSV06 SAVING              RIV IN MODEL GWF_1            PACKAGE GWF_1           CONNECTED TO MODEL GWF_1            PACKAGE RIV_SYS2         ON UNIT   1018 AT TIME STEP      1, STRESS PERIOD     34
 UBDSV06 SAVING              RCH IN MODEL GWF_1            PACKAGE GWF_1           CONNECTED TO MODEL GWF_1            PACKAGE RCH_MSW          ON UNIT   1018 AT TIME STEP      1, STRESS PERIOD     34

 HEAD WILL BE SAVED ON UNIT 1017 AT END OF TIME STEP    1, STRESS PERIOD   34


  VOLUME BUDGET FOR ENTIRE MODEL AT END OF TIME STEP    1, STRESS PERIOD  34
  ---------------------------------------------------------------------------------------------------

     CUMULATIVE VOLUME      L**3       RATES FOR THIS TIME STEP      L**3/T          PACKAGE NAME    
     ------------------                 ------------------------                     ----------------

           IN:                                      IN:
           ---                                      ---
              STO-SS =      147089.3641                STO-SS =        1025.9583     STORAGE                          
                 DRN =           0.0000                   DRN =           0.0000     DRN_SYS1                         
                 RIV =        5113.5399                   RIV =         351.2651     RIV_SYS1                         
                 RIV =           0.0000                   RIV =           0.0000     RIV_SYS2                         
                 RCH =       80317.3435                   RCH =        2468.7248     RCH_MSW                          

            TOTAL IN =      232520.2475              TOTAL IN =        3845.9482

          OUT:                                     OUT:
          ----                                     ----
              STO-SS =         230.1810                STO-SS =           0.0000     STORAGE                          
                 DRN =        5349.5294                   DRN =          97.0635     DRN_SYS1                         
                 RIV =      209253.1475                   RIV =        3494.7030     RIV_SYS1                         
                 RIV =       14329.7113                   RIV =         254.1831     RIV_SYS2                         
                 RCH =        3357.8410                   RCH =           0.0000     RCH_MSW                          

           TOTAL OUT =      232520.4101             TOTAL OUT =        3845.9496

            IN - OUT =          -0.1627              IN - OUT =      -1.3973E-03

 PERCENT DISCREPANCY =          -0.00     PERCENT DISCREPANCY =          -0.00




         TIME SUMMARY AT END OF TIME STEP    1 IN STRESS PERIOD   34
                    SECONDS     MINUTES      HOURS       DAYS        YEARS
                    -----------------------------------------------------------
   TIME STEP LENGTH  86400.      1440.0      24.000      1.0000     2.73785E-03
 STRESS PERIOD TIME  86400.      1440.0      24.000      1.0000     2.73785E-03
         TOTAL TIME 2.93760E+06  48960.      816.00      34.000     9.30869E-02


end timestep


start timestep kper="35" kstp="1" mode="normal"

 #Stressperiod Save Options

 BEGIN READING OUTPUT CONTROL FOR STRESS PERIOD 35
      ALL TIME STEPS WILL BE SAVED
      ALL TIME STEPS WILL BE SAVED

 END READING OUTPUT CONTROL FOR STRESS PERIOD 35


 PROCESSING STORAGE PERIOD DATA
 END PROCESSING STORAGE PERIOD DATA


 STRESS PERIOD 35 IS TRANSIENT


 REUSING DRNS FROM LAST STRESS PERIOD

 REUSING RIVS FROM LAST STRESS PERIOD

 REUSING RIVS FROM LAST STRESS PERIOD

 REUSING RCHS FROM LAST STRESS PERIOD
 UBDSV06 SAVING              DRN IN MODEL GWF_1            PACKAGE GWF_1           CONNECTED TO MODEL GWF_1            PACKAGE DRN_SYS1         ON UNIT   1018 AT TIME STEP      1, STRESS PERIOD     35
 UBDSV06 SAVING              RIV IN MODEL GWF_1            PACKAGE GWF_1           CONNECTED TO MODEL GWF_1            PACKAGE RIV_SYS1         ON UNIT   1018 AT TIME STEP      1, STRESS PERIOD     35
 UBDSV06 SAVING              RIV IN MODEL GWF_1            PACKAGE GWF_1           CONNECTED TO MODEL GWF_1            PACKAGE RIV_SYS2         ON UNIT   1018 AT TIME STEP      1, STRESS PERIOD     35
 UBDSV06 SAVING              RCH IN MODEL GWF_1            PACKAGE GWF_1           CONNECTED TO MODEL GWF_1            PACKAGE RCH_MSW          ON UNIT   1018 AT TIME STEP      1, STRESS PERIOD     35

 HEAD WILL BE SAVED ON UNIT 1017 AT END OF TIME STEP    1, STRESS PERIOD   35


  VOLUME BUDGET FOR ENTIRE MODEL AT END OF TIME STEP    1, STRESS PERIOD  35
  ---------------------------------------------------------------------------------------------------

     CUMULATIVE VOLUME      L**3       RATES FOR THIS TIME STEP      L**3/T          PACKAGE NAME    
     ------------------                 ------------------------                     ----------------

           IN:                                      IN:
           ---                                      ---
              STO-SS =      148157.2599                STO-SS =        1067.8958     STORAGE                          
                 DRN =           0.0000                   DRN =           0.0000     DRN_SYS1                         
                 RIV =        5486.4559                   RIV =         372.9160     RIV_SYS1                         
                 RIV =           0.0000                   RIV =           0.0000     RIV_SYS2                         
                 RCH =       82637.5630                   RCH =        2320.2195     RCH_MSW                          

            TOTAL IN =      236281.2788              TOTAL IN =        3761.0313

          OUT:                                     OUT:
          ----                                     ----
              STO-SS =         230.1810                STO-SS =           0.0000     STORAGE                          
                 DRN =        5444.4970                   DRN =          94.9676     DRN_SYS1                         
                 RIV =      212670.2790                   RIV =        3417.1315     RIV_SYS1                         
                 RIV =       14578.6447                   RIV =         248.9335     RIV_SYS2                         
                 RCH =        3357.8410                   RCH =           0.0000     RCH_MSW                          

           TOTAL OUT =      236281.4427             TOTAL OUT =        3761.0326

            IN - OUT =          -0.1639              IN - OUT =      -1.2381E-03

 PERCENT DISCREPANCY =          -0.00     PERCENT DISCREPANCY =          -0.00




         TIME SUMMARY AT END OF TIME STEP    1 IN STRESS PERIOD   35
                    SECONDS     MINUTES      HOURS       DAYS        YEARS
                    -----------------------------------------------------------
   TIME STEP LENGTH  86400.      1440.0      24.000      1.0000     2.73785E-03
 STRESS PERIOD TIME  86400.      1440.0      24.000      1.0000     2.73785E-03
         TOTAL TIME 3.02400E+06  50400.      840.00      35.000     9.58248E-02


end timestep


start timestep kper="36" kstp="1" mode="normal"

 #Stressperiod Save Options

 BEGIN READING OUTPUT CONTROL FOR STRESS PERIOD 36
      ALL TIME STEPS WILL BE SAVED
      ALL TIME STEPS WILL BE SAVED

 END READING OUTPUT CONTROL FOR STRESS PERIOD 36


 PROCESSING STORAGE PERIOD DATA
 END PROCESSING STORAGE PERIOD DATA


 STRESS PERIOD 36 IS TRANSIENT


 REUSING DRNS FROM LAST STRESS PERIOD

 REUSING RIVS FROM LAST STRESS PERIOD

 REUSING RIVS FROM LAST STRESS PERIOD

 REUSING RCHS FROM LAST STRESS PERIOD
 UBDSV06 SAVING              DRN IN MODEL GWF_1            PACKAGE GWF_1           CONNECTED TO MODEL GWF_1            PACKAGE DRN_SYS1         ON UNIT   1018 AT TIME STEP      1, STRESS PERIOD     36
 UBDSV06 SAVING              RIV IN MODEL GWF_1            PACKAGE GWF_1           CONNECTED TO MODEL GWF_1            PACKAGE RIV_SYS1         ON UNIT   1018 AT TIME STEP      1, STRESS PERIOD     36
 UBDSV06 SAVING              RIV IN MODEL GWF_1            PACKAGE GWF_1           CONNECTED TO MODEL GWF_1            PACKAGE RIV_SYS2         ON UNIT   1018 AT TIME STEP      1, STRESS PERIOD     36
 UBDSV06 SAVING              RCH IN MODEL GWF_1            PACKAGE GWF_1           CONNECTED TO MODEL GWF_1            PACKAGE RCH_MSW          ON UNIT   1018 AT TIME STEP      1, STRESS PERIOD     36

 HEAD WILL BE SAVED ON UNIT 1017 AT END OF TIME STEP    1, STRESS PERIOD   36


  VOLUME BUDGET FOR ENTIRE MODEL AT END OF TIME STEP    1, STRESS PERIOD  36
  ---------------------------------------------------------------------------------------------------

     CUMULATIVE VOLUME      L**3       RATES FOR THIS TIME STEP      L**3/T          PACKAGE NAME    
     ------------------                 ------------------------                     ----------------

           IN:                                      IN:
           ---                                      ---
              STO-SS =      149266.6207                STO-SS =        1109.3608     STORAGE                          
                 DRN =           0.0000                   DRN =           0.0000     DRN_SYS1                         
                 RIV =        5881.4655                   RIV =         395.0096     RIV_SYS1                         
                 RIV =           0.0000                   RIV =           0.0000     RIV_SYS2                         
                 RCH =       84809.8132                   RCH =        2172.2502     RCH_MSW                          

            TOTAL IN =      239957.8994              TOTAL IN =        3676.6206

          OUT:                                     OUT:
          ----                                     ----
              STO-SS =         230.1810                STO-SS =           0.0000     STORAGE                          
                 DRN =        5537.3074                   DRN =          92.8104     DRN_SYS1                         
                 RIV =      216010.5630                   RIV =        3340.2840     RIV_SYS1                         
                 RIV =       14822.1707                   RIV =         243.5259     RIV_SYS2                         
                 RCH =        3357.8410                   RCH =           0.0000     RCH_MSW                          

           TOTAL OUT =      239958.0630             TOTAL OUT =        3676.6203

            IN - OUT =          -0.1636              IN - OUT =       2.8447E-04

 PERCENT DISCREPANCY =          -0.00     PERCENT DISCREPANCY =           0.00




         TIME SUMMARY AT END OF TIME STEP    1 IN STRESS PERIOD   36
                    SECONDS     MINUTES      HOURS       DAYS        YEARS
                    -----------------------------------------------------------
   TIME STEP LENGTH  86400.      1440.0      24.000      1.0000     2.73785E-03
 STRESS PERIOD TIME  86400.      1440.0      24.000      1.0000     2.73785E-03
         TOTAL TIME 3.11040E+06  51840.      864.00      36.000     9.85626E-02


end timestep


start timestep kper="37" kstp="1" mode="normal"

 #Stressperiod Save Options

 BEGIN READING OUTPUT CONTROL FOR STRESS PERIOD 37
      ALL TIME STEPS WILL BE SAVED
      ALL TIME STEPS WILL BE SAVED

 END READING OUTPUT CONTROL FOR STRESS PERIOD 37


 PROCESSING STORAGE PERIOD DATA
 END PROCESSING STORAGE PERIOD DATA


 STRESS PERIOD 37 IS TRANSIENT


 REUSING DRNS FROM LAST STRESS PERIOD

 REUSING RIVS FROM LAST STRESS PERIOD

 REUSING RIVS FROM LAST STRESS PERIOD

 REUSING RCHS FROM LAST STRESS PERIOD
 UBDSV06 SAVING              DRN IN MODEL GWF_1            PACKAGE GWF_1           CONNECTED TO MODEL GWF_1            PACKAGE DRN_SYS1         ON UNIT   1018 AT TIME STEP      1, STRESS PERIOD     37
 UBDSV06 SAVING              RIV IN MODEL GWF_1            PACKAGE GWF_1           CONNECTED TO MODEL GWF_1            PACKAGE RIV_SYS1         ON UNIT   1018 AT TIME STEP      1, STRESS PERIOD     37
 UBDSV06 SAVING              RIV IN MODEL GWF_1            PACKAGE GWF_1           CONNECTED TO MODEL GWF_1            PACKAGE RIV_SYS2         ON UNIT   1018 AT TIME STEP      1, STRESS PERIOD     37
 UBDSV06 SAVING              RCH IN MODEL GWF_1            PACKAGE GWF_1           CONNECTED TO MODEL GWF_1            PACKAGE RCH_MSW          ON UNIT   1018 AT TIME STEP      1, STRESS PERIOD     37

 HEAD WILL BE SAVED ON UNIT 1017 AT END OF TIME STEP    1, STRESS PERIOD   37


  VOLUME BUDGET FOR ENTIRE MODEL AT END OF TIME STEP    1, STRESS PERIOD  37
  ---------------------------------------------------------------------------------------------------

     CUMULATIVE VOLUME      L**3       RATES FOR THIS TIME STEP      L**3/T          PACKAGE NAME    
     ------------------                 ------------------------                     ----------------

           IN:                                      IN:
           ---                                      ---
              STO-SS =      150407.4867                STO-SS =        1140.8659     STORAGE                          
                 DRN =           0.0000                   DRN =           0.0000     DRN_SYS1                         
                 RIV =        6298.7958                   RIV =         417.3303     RIV_SYS1                         
                 RIV =           0.0000                   RIV =           0.0000     RIV_SYS2                         
                 RCH =       86844.7439                   RCH =        2034.9307     RCH_MSW                          

            TOTAL IN =      243551.0264              TOTAL IN =        3593.1269

          OUT:                                     OUT:
          ----                                     ----
              STO-SS =         230.1810                STO-SS =           0.0000     STORAGE                          
                 DRN =        5627.9224                   DRN =          90.6150     DRN_SYS1                         
                 RIV =      219275.0667                   RIV =        3264.5036     RIV_SYS1                         
                 RIV =       15060.1777                   RIV =         238.0071     RIV_SYS2                         
                 RCH =        3357.8410                   RCH =           0.0000     RCH_MSW                          

           TOTAL OUT =      243551.1887             TOTAL OUT =        3593.1257

            IN - OUT =          -0.1624              IN - OUT =       1.2446E-03

 PERCENT DISCREPANCY =          -0.00     PERCENT DISCREPANCY =           0.00




         TIME SUMMARY AT END OF TIME STEP    1 IN STRESS PERIOD   37
                    SECONDS     MINUTES      HOURS       DAYS        YEARS
                    -----------------------------------------------------------
   TIME STEP LENGTH  86400.      1440.0      24.000      1.0000     2.73785E-03
 STRESS PERIOD TIME  86400.      1440.0      24.000      1.0000     2.73785E-03
         TOTAL TIME 3.19680E+06  53280.      888.00      37.000     0.10130    


end timestep


start timestep kper="38" kstp="1" mode="normal"

 #Stressperiod Save Options

 BEGIN READING OUTPUT CONTROL FOR STRESS PERIOD 38
      ALL TIME STEPS WILL BE SAVED
      ALL TIME STEPS WILL BE SAVED

 END READING OUTPUT CONTROL FOR STRESS PERIOD 38


 PROCESSING STORAGE PERIOD DATA
 END PROCESSING STORAGE PERIOD DATA


 STRESS PERIOD 38 IS TRANSIENT


 REUSING DRNS FROM LAST STRESS PERIOD

 REUSING RIVS FROM LAST STRESS PERIOD

 REUSING RIVS FROM LAST STRESS PERIOD

 REUSING RCHS FROM LAST STRESS PERIOD
 UBDSV06 SAVING              DRN IN MODEL GWF_1            PACKAGE GWF_1           CONNECTED TO MODEL GWF_1            PACKAGE DRN_SYS1         ON UNIT   1018 AT TIME STEP      1, STRESS PERIOD     38
 UBDSV06 SAVING              RIV IN MODEL GWF_1            PACKAGE GWF_1           CONNECTED TO MODEL GWF_1            PACKAGE RIV_SYS1         ON UNIT   1018 AT TIME STEP      1, STRESS PERIOD     38
 UBDSV06 SAVING              RIV IN MODEL GWF_1            PACKAGE GWF_1           CONNECTED TO MODEL GWF_1            PACKAGE RIV_SYS2         ON UNIT   1018 AT TIME STEP      1, STRESS PERIOD     38
 UBDSV06 SAVING              RCH IN MODEL GWF_1            PACKAGE GWF_1           CONNECTED TO MODEL GWF_1            PACKAGE RCH_MSW          ON UNIT   1018 AT TIME STEP      1, STRESS PERIOD     38

 HEAD WILL BE SAVED ON UNIT 1017 AT END OF TIME STEP    1, STRESS PERIOD   38


  VOLUME BUDGET FOR ENTIRE MODEL AT END OF TIME STEP    1, STRESS PERIOD  38
  ---------------------------------------------------------------------------------------------------

     CUMULATIVE VOLUME      L**3       RATES FOR THIS TIME STEP      L**3/T          PACKAGE NAME    
     ------------------                 ------------------------                     ----------------

           IN:                                      IN:
           ---                                      ---
              STO-SS =      151553.6004                STO-SS =        1146.1137     STORAGE                          
                 DRN =           0.0000                   DRN =           0.0000     DRN_SYS1                         
                 RIV =        6738.0213                   RIV =         439.2254     RIV_SYS1                         
                 RIV =           0.0000                   RIV =           0.0000     RIV_SYS2                         
                 RCH =       88772.1817                   RCH =        1927.4378     RCH_MSW                          

            TOTAL IN =      247063.8034              TOTAL IN =        3512.7770

          OUT:                                     OUT:
          ----                                     ----
              STO-SS =         230.1810                STO-SS =           0.0000     STORAGE                          
                 DRN =        5716.3505                   DRN =          88.4280     DRN_SYS1                         
                 RIV =      222466.8962                   RIV =        3191.8295     RIV_SYS1                         
                 RIV =       15292.6972                   RIV =         232.5195     RIV_SYS2                         
                 RCH =        3357.8410                   RCH =           0.0000     RCH_MSW                          

           TOTAL OUT =      247063.9658             TOTAL OUT =        3512.7771

            IN - OUT =          -0.1625              IN - OUT =      -8.7051E-05

 PERCENT DISCREPANCY =          -0.00     PERCENT DISCREPANCY =          -0.00




         TIME SUMMARY AT END OF TIME STEP    1 IN STRESS PERIOD   38
                    SECONDS     MINUTES      HOURS       DAYS        YEARS
                    -----------------------------------------------------------
   TIME STEP LENGTH  86400.      1440.0      24.000      1.0000     2.73785E-03
 STRESS PERIOD TIME  86400.      1440.0      24.000      1.0000     2.73785E-03
         TOTAL TIME 3.28320E+06  54720.      912.00      38.000     0.10404    


end timestep


start timestep kper="39" kstp="1" mode="normal"

 #Stressperiod Save Options

 BEGIN READING OUTPUT CONTROL FOR STRESS PERIOD 39
      ALL TIME STEPS WILL BE SAVED
      ALL TIME STEPS WILL BE SAVED

 END READING OUTPUT CONTROL FOR STRESS PERIOD 39


 PROCESSING STORAGE PERIOD DATA
 END PROCESSING STORAGE PERIOD DATA


 STRESS PERIOD 39 IS TRANSIENT


 REUSING DRNS FROM LAST STRESS PERIOD

 REUSING RIVS FROM LAST STRESS PERIOD

 REUSING RIVS FROM LAST STRESS PERIOD

 REUSING RCHS FROM LAST STRESS PERIOD
 UBDSV06 SAVING              DRN IN MODEL GWF_1            PACKAGE GWF_1           CONNECTED TO MODEL GWF_1            PACKAGE DRN_SYS1         ON UNIT   1018 AT TIME STEP      1, STRESS PERIOD     39
 UBDSV06 SAVING              RIV IN MODEL GWF_1            PACKAGE GWF_1           CONNECTED TO MODEL GWF_1            PACKAGE RIV_SYS1         ON UNIT   1018 AT TIME STEP      1, STRESS PERIOD     39
 UBDSV06 SAVING              RIV IN MODEL GWF_1            PACKAGE GWF_1           CONNECTED TO MODEL GWF_1            PACKAGE RIV_SYS2         ON UNIT   1018 AT TIME STEP      1, STRESS PERIOD     39
 UBDSV06 SAVING              RCH IN MODEL GWF_1            PACKAGE GWF_1           CONNECTED TO MODEL GWF_1            PACKAGE RCH_MSW          ON UNIT   1018 AT TIME STEP      1, STRESS PERIOD     39

 HEAD WILL BE SAVED ON UNIT 1017 AT END OF TIME STEP    1, STRESS PERIOD   39


  VOLUME BUDGET FOR ENTIRE MODEL AT END OF TIME STEP    1, STRESS PERIOD  39
  ---------------------------------------------------------------------------------------------------

     CUMULATIVE VOLUME      L**3       RATES FOR THIS TIME STEP      L**3/T          PACKAGE NAME    
     ------------------                 ------------------------                     ----------------

           IN:                                      IN:
           ---                                      ---
              STO-SS =      152702.9312                STO-SS =        1149.3308     STORAGE                          
                 DRN =           0.0000                   DRN =           0.0000     DRN_SYS1                         
                 RIV =        7198.9297                   RIV =         460.9084     RIV_SYS1                         
                 RIV =           0.0000                   RIV =           0.0000     RIV_SYS2                         
                 RCH =       90596.2897                   RCH =        1824.1080     RCH_MSW                          

            TOTAL IN =      250498.1506              TOTAL IN =        3434.3472

          OUT:                                     OUT:
          ----                                     ----
              STO-SS =         230.1810                STO-SS =           0.0000     STORAGE                          
                 DRN =        5802.6015                   DRN =          86.2510     DRN_SYS1                         
                 RIV =      225587.9240                   RIV =        3121.0278     RIV_SYS1                         
                 RIV =       15519.7684                   RIV =         227.0711     RIV_SYS2                         
                 RCH =        3357.8410                   RCH =           0.0000     RCH_MSW                          

           TOTAL OUT =      250498.3158             TOTAL OUT =        3434.3500

            IN - OUT =          -0.1652              IN - OUT =      -2.7244E-03

 PERCENT DISCREPANCY =          -0.00     PERCENT DISCREPANCY =          -0.00




         TIME SUMMARY AT END OF TIME STEP    1 IN STRESS PERIOD   39
                    SECONDS     MINUTES      HOURS       DAYS        YEARS
                    -----------------------------------------------------------
   TIME STEP LENGTH  86400.      1440.0      24.000      1.0000     2.73785E-03
 STRESS PERIOD TIME  86400.      1440.0      24.000      1.0000     2.73785E-03
         TOTAL TIME 3.36960E+06  56160.      936.00      39.000     0.10678    


end timestep


start timestep kper="40" kstp="1" mode="normal"

 #Stressperiod Save Options

 BEGIN READING OUTPUT CONTROL FOR STRESS PERIOD 40
      ALL TIME STEPS WILL BE SAVED
      ALL TIME STEPS WILL BE SAVED

 END READING OUTPUT CONTROL FOR STRESS PERIOD 40


 PROCESSING STORAGE PERIOD DATA
 END PROCESSING STORAGE PERIOD DATA


 STRESS PERIOD 40 IS TRANSIENT


 REUSING DRNS FROM LAST STRESS PERIOD

 REUSING RIVS FROM LAST STRESS PERIOD

 REUSING RIVS FROM LAST STRESS PERIOD

 REUSING RCHS FROM LAST STRESS PERIOD
 UBDSV06 SAVING              DRN IN MODEL GWF_1            PACKAGE GWF_1           CONNECTED TO MODEL GWF_1            PACKAGE DRN_SYS1         ON UNIT   1018 AT TIME STEP      1, STRESS PERIOD     40
 UBDSV06 SAVING              RIV IN MODEL GWF_1            PACKAGE GWF_1           CONNECTED TO MODEL GWF_1            PACKAGE RIV_SYS1         ON UNIT   1018 AT TIME STEP      1, STRESS PERIOD     40
 UBDSV06 SAVING              RIV IN MODEL GWF_1            PACKAGE GWF_1           CONNECTED TO MODEL GWF_1            PACKAGE RIV_SYS2         ON UNIT   1018 AT TIME STEP      1, STRESS PERIOD     40
 UBDSV06 SAVING              RCH IN MODEL GWF_1            PACKAGE GWF_1           CONNECTED TO MODEL GWF_1            PACKAGE RCH_MSW          ON UNIT   1018 AT TIME STEP      1, STRESS PERIOD     40

 HEAD WILL BE SAVED ON UNIT 1017 AT END OF TIME STEP    1, STRESS PERIOD   40


  VOLUME BUDGET FOR ENTIRE MODEL AT END OF TIME STEP    1, STRESS PERIOD  40
  ---------------------------------------------------------------------------------------------------

     CUMULATIVE VOLUME      L**3       RATES FOR THIS TIME STEP      L**3/T          PACKAGE NAME    
     ------------------                 ------------------------                     ----------------

           IN:                                      IN:
           ---                                      ---
              STO-SS =      153847.0521                STO-SS =        1144.1209     STORAGE                          
                 DRN =           0.0000                   DRN =           0.0000     DRN_SYS1                         
                 RIV =        7680.8354                   RIV =         481.9057     RIV_SYS1                         
                 RIV =           0.0000                   RIV =           0.0000     RIV_SYS2                         
                 RCH =       92329.2018                   RCH =        1732.9121     RCH_MSW                          

            TOTAL IN =      253857.0893              TOTAL IN =        3358.9387

          OUT:                                     OUT:
          ----                                     ----
              STO-SS =         230.1810                STO-SS =           0.0000     STORAGE                          
                 DRN =        5886.6969                   DRN =          84.0955     DRN_SYS1                         
                 RIV =      228641.0863                   RIV =        3053.1623     RIV_SYS1                         
                 RIV =       15741.4514                   RIV =         221.6830     RIV_SYS2                         
                 RCH =        3357.8410                   RCH =           0.0000     RCH_MSW                          

           TOTAL OUT =      253857.2566             TOTAL OUT =        3358.9409

            IN - OUT =          -0.1673              IN - OUT =      -2.1578E-03

 PERCENT DISCREPANCY =          -0.00     PERCENT DISCREPANCY =          -0.00




         TIME SUMMARY AT END OF TIME STEP    1 IN STRESS PERIOD   40
                    SECONDS     MINUTES      HOURS       DAYS        YEARS
                    -----------------------------------------------------------
   TIME STEP LENGTH  86400.      1440.0      24.000      1.0000     2.73785E-03
 STRESS PERIOD TIME  86400.      1440.0      24.000      1.0000     2.73785E-03
         TOTAL TIME 3.45600E+06  57600.      960.00      40.000     0.10951    


end timestep


start timestep kper="41" kstp="1" mode="normal"

 #Stressperiod Save Options

 BEGIN READING OUTPUT CONTROL FOR STRESS PERIOD 41
      ALL TIME STEPS WILL BE SAVED
      ALL TIME STEPS WILL BE SAVED

 END READING OUTPUT CONTROL FOR STRESS PERIOD 41


 PROCESSING STORAGE PERIOD DATA
 END PROCESSING STORAGE PERIOD DATA


 STRESS PERIOD 41 IS TRANSIENT


 REUSING DRNS FROM LAST STRESS PERIOD

 REUSING RIVS FROM LAST STRESS PERIOD

 REUSING RIVS FROM LAST STRESS PERIOD

 REUSING RCHS FROM LAST STRESS PERIOD
 UBDSV06 SAVING              DRN IN MODEL GWF_1            PACKAGE GWF_1           CONNECTED TO MODEL GWF_1            PACKAGE DRN_SYS1         ON UNIT   1018 AT TIME STEP      1, STRESS PERIOD     41
 UBDSV06 SAVING              RIV IN MODEL GWF_1            PACKAGE GWF_1           CONNECTED TO MODEL GWF_1            PACKAGE RIV_SYS1         ON UNIT   1018 AT TIME STEP      1, STRESS PERIOD     41
 UBDSV06 SAVING              RIV IN MODEL GWF_1            PACKAGE GWF_1           CONNECTED TO MODEL GWF_1            PACKAGE RIV_SYS2         ON UNIT   1018 AT TIME STEP      1, STRESS PERIOD     41
 UBDSV06 SAVING              RCH IN MODEL GWF_1            PACKAGE GWF_1           CONNECTED TO MODEL GWF_1            PACKAGE RCH_MSW          ON UNIT   1018 AT TIME STEP      1, STRESS PERIOD     41

 HEAD WILL BE SAVED ON UNIT 1017 AT END OF TIME STEP    1, STRESS PERIOD   41


  VOLUME BUDGET FOR ENTIRE MODEL AT END OF TIME STEP    1, STRESS PERIOD  41
  ---------------------------------------------------------------------------------------------------

     CUMULATIVE VOLUME      L**3       RATES FOR THIS TIME STEP      L**3/T          PACKAGE NAME    
     ------------------                 ------------------------                     ----------------

           IN:                                      IN:
           ---                                      ---
              STO-SS =      154971.8568                STO-SS =        1124.8046     STORAGE                          
                 DRN =           0.0000                   DRN =           0.0000     DRN_SYS1                         
                 RIV =        8182.5930                   RIV =         501.7576     RIV_SYS1                         
                 RIV =           0.0000                   RIV =           0.0000     RIV_SYS2                         
                 RCH =       93990.4896                   RCH =        1661.2879     RCH_MSW                          

            TOTAL IN =      257144.9394              TOTAL IN =        3287.8501

          OUT:                                     OUT:
          ----                                     ----
              STO-SS =         230.1810                STO-SS =           0.0000     STORAGE                          
                 DRN =        5968.6764                   DRN =          81.9795     DRN_SYS1                         
                 RIV =      231630.5567                   RIV =        2989.4704     RIV_SYS1                         
                 RIV =       15957.8528                   RIV =         216.4014     RIV_SYS2                         
                 RCH =        3357.8410                   RCH =           0.0000     RCH_MSW                          

           TOTAL OUT =      257145.1079             TOTAL OUT =        3287.8513

            IN - OUT =          -0.1685              IN - OUT =      -1.1484E-03

 PERCENT DISCREPANCY =          -0.00     PERCENT DISCREPANCY =          -0.00




         TIME SUMMARY AT END OF TIME STEP    1 IN STRESS PERIOD   41
                    SECONDS     MINUTES      HOURS       DAYS        YEARS
                    -----------------------------------------------------------
   TIME STEP LENGTH  86400.      1440.0      24.000      1.0000     2.73785E-03
 STRESS PERIOD TIME  86400.      1440.0      24.000      1.0000     2.73785E-03
         TOTAL TIME 3.54240E+06  59040.      984.00      41.000     0.11225    


end timestep


start timestep kper="42" kstp="1" mode="normal"

 #Stressperiod Save Options

 BEGIN READING OUTPUT CONTROL FOR STRESS PERIOD 42
      ALL TIME STEPS WILL BE SAVED
      ALL TIME STEPS WILL BE SAVED

 END READING OUTPUT CONTROL FOR STRESS PERIOD 42


 PROCESSING STORAGE PERIOD DATA
 END PROCESSING STORAGE PERIOD DATA


 STRESS PERIOD 42 IS TRANSIENT


 REUSING DRNS FROM LAST STRESS PERIOD

 REUSING RIVS FROM LAST STRESS PERIOD

 REUSING RIVS FROM LAST STRESS PERIOD

 REUSING RCHS FROM LAST STRESS PERIOD
 UBDSV06 SAVING              DRN IN MODEL GWF_1            PACKAGE GWF_1           CONNECTED TO MODEL GWF_1            PACKAGE DRN_SYS1         ON UNIT   1018 AT TIME STEP      1, STRESS PERIOD     42
 UBDSV06 SAVING              RIV IN MODEL GWF_1            PACKAGE GWF_1           CONNECTED TO MODEL GWF_1            PACKAGE RIV_SYS1         ON UNIT   1018 AT TIME STEP      1, STRESS PERIOD     42
 UBDSV06 SAVING              RIV IN MODEL GWF_1            PACKAGE GWF_1           CONNECTED TO MODEL GWF_1            PACKAGE RIV_SYS2         ON UNIT   1018 AT TIME STEP      1, STRESS PERIOD     42
 UBDSV06 SAVING              RCH IN MODEL GWF_1            PACKAGE GWF_1           CONNECTED TO MODEL GWF_1            PACKAGE RCH_MSW          ON UNIT   1018 AT TIME STEP      1, STRESS PERIOD     42

 HEAD WILL BE SAVED ON UNIT 1017 AT END OF TIME STEP    1, STRESS PERIOD   42


  VOLUME BUDGET FOR ENTIRE MODEL AT END OF TIME STEP    1, STRESS PERIOD  42
  ---------------------------------------------------------------------------------------------------

     CUMULATIVE VOLUME      L**3       RATES FOR THIS TIME STEP      L**3/T          PACKAGE NAME    
     ------------------                 ------------------------                     ----------------

           IN:                                      IN:
           ---                                      ---
              STO-SS =      156073.9397                STO-SS =        1102.0829     STORAGE                          
                 DRN =           0.0000                   DRN =           0.0000     DRN_SYS1                         
                 RIV =        8703.3935                   RIV =         520.8004     RIV_SYS1                         
                 RIV =           0.0000                   RIV =           0.0000     RIV_SYS2                         
                 RCH =       95587.0707                   RCH =        1596.5811     RCH_MSW                          

            TOTAL IN =      260364.4038              TOTAL IN =        3219.4644

          OUT:                                     OUT:
          ----                                     ----
              STO-SS =         230.1810                STO-SS =           0.0000     STORAGE                          
                 DRN =        6048.5926                   DRN =          79.9162     DRN_SYS1                         
                 RIV =      234558.8525                   RIV =        2928.2957     RIV_SYS1                         
                 RIV =       16169.1067                   RIV =         211.2539     RIV_SYS2                         
                 RCH =        3357.8410                   RCH =           0.0000     RCH_MSW                          

           TOTAL OUT =      260364.5737             TOTAL OUT =        3219.4658

            IN - OUT =          -0.1699              IN - OUT =      -1.4171E-03

 PERCENT DISCREPANCY =          -0.00     PERCENT DISCREPANCY =          -0.00




         TIME SUMMARY AT END OF TIME STEP    1 IN STRESS PERIOD   42
                    SECONDS     MINUTES      HOURS       DAYS        YEARS
                    -----------------------------------------------------------
   TIME STEP LENGTH  86400.      1440.0      24.000      1.0000     2.73785E-03
 STRESS PERIOD TIME  86400.      1440.0      24.000      1.0000     2.73785E-03
         TOTAL TIME 3.62880E+06  60480.      1008.0      42.000     0.11499    


end timestep


start timestep kper="43" kstp="1" mode="normal"

 #Stressperiod Save Options

 BEGIN READING OUTPUT CONTROL FOR STRESS PERIOD 43
      ALL TIME STEPS WILL BE SAVED
      ALL TIME STEPS WILL BE SAVED

 END READING OUTPUT CONTROL FOR STRESS PERIOD 43


 PROCESSING STORAGE PERIOD DATA
 END PROCESSING STORAGE PERIOD DATA


 STRESS PERIOD 43 IS TRANSIENT


 REUSING DRNS FROM LAST STRESS PERIOD

 REUSING RIVS FROM LAST STRESS PERIOD

 REUSING RIVS FROM LAST STRESS PERIOD

 REUSING RCHS FROM LAST STRESS PERIOD
 UBDSV06 SAVING              DRN IN MODEL GWF_1            PACKAGE GWF_1           CONNECTED TO MODEL GWF_1            PACKAGE DRN_SYS1         ON UNIT   1018 AT TIME STEP      1, STRESS PERIOD     43
 UBDSV06 SAVING              RIV IN MODEL GWF_1            PACKAGE GWF_1           CONNECTED TO MODEL GWF_1            PACKAGE RIV_SYS1         ON UNIT   1018 AT TIME STEP      1, STRESS PERIOD     43
 UBDSV06 SAVING              RIV IN MODEL GWF_1            PACKAGE GWF_1           CONNECTED TO MODEL GWF_1            PACKAGE RIV_SYS2         ON UNIT   1018 AT TIME STEP      1, STRESS PERIOD     43
 UBDSV06 SAVING              RCH IN MODEL GWF_1            PACKAGE GWF_1           CONNECTED TO MODEL GWF_1            PACKAGE RCH_MSW          ON UNIT   1018 AT TIME STEP      1, STRESS PERIOD     43

 HEAD WILL BE SAVED ON UNIT 1017 AT END OF TIME STEP    1, STRESS PERIOD   43


  VOLUME BUDGET FOR ENTIRE MODEL AT END OF TIME STEP    1, STRESS PERIOD  43
  ---------------------------------------------------------------------------------------------------

     CUMULATIVE VOLUME      L**3       RATES FOR THIS TIME STEP      L**3/T          PACKAGE NAME    
     ------------------                 ------------------------                     ----------------

           IN:                                      IN:
           ---                                      ---
              STO-SS =      157155.5348                STO-SS =        1081.5951     STORAGE                          
                 DRN =           0.0000                   DRN =           0.0000     DRN_SYS1                         
                 RIV =        9242.5986                   RIV =         539.2052     RIV_SYS1                         
                 RIV =           0.0000                   RIV =           0.0000     RIV_SYS2                         
                 RCH =       97120.0538                   RCH =        1532.9831     RCH_MSW                          

            TOTAL IN =      263518.1872              TOTAL IN =        3153.7834

          OUT:                                     OUT:
          ----                                     ----
              STO-SS =         230.1810                STO-SS =           0.0000     STORAGE                          
                 DRN =        6126.5006                   DRN =          77.9080     DRN_SYS1                         
                 RIV =      237428.4849                   RIV =        2869.6325     RIV_SYS1                         
                 RIV =       16375.3540                   RIV =         206.2473     RIV_SYS2                         
                 RCH =        3357.8410                   RCH =           0.0000     RCH_MSW                          

           TOTAL OUT =      263518.3614             TOTAL OUT =        3153.7877

            IN - OUT =          -0.1743              IN - OUT =      -4.3646E-03

 PERCENT DISCREPANCY =          -0.00     PERCENT DISCREPANCY =          -0.00




         TIME SUMMARY AT END OF TIME STEP    1 IN STRESS PERIOD   43
                    SECONDS     MINUTES      HOURS       DAYS        YEARS
                    -----------------------------------------------------------
   TIME STEP LENGTH  86400.      1440.0      24.000      1.0000     2.73785E-03
 STRESS PERIOD TIME  86400.      1440.0      24.000      1.0000     2.73785E-03
         TOTAL TIME 3.71520E+06  61920.      1032.0      43.000     0.11773    


end timestep


start timestep kper="44" kstp="1" mode="normal"

 #Stressperiod Save Options

 BEGIN READING OUTPUT CONTROL FOR STRESS PERIOD 44
      ALL TIME STEPS WILL BE SAVED
      ALL TIME STEPS WILL BE SAVED

 END READING OUTPUT CONTROL FOR STRESS PERIOD 44


 PROCESSING STORAGE PERIOD DATA
 END PROCESSING STORAGE PERIOD DATA


 STRESS PERIOD 44 IS TRANSIENT


 REUSING DRNS FROM LAST STRESS PERIOD

 REUSING RIVS FROM LAST STRESS PERIOD

 REUSING RIVS FROM LAST STRESS PERIOD

 REUSING RCHS FROM LAST STRESS PERIOD
 UBDSV06 SAVING              DRN IN MODEL GWF_1            PACKAGE GWF_1           CONNECTED TO MODEL GWF_1            PACKAGE DRN_SYS1         ON UNIT   1018 AT TIME STEP      1, STRESS PERIOD     44
 UBDSV06 SAVING              RIV IN MODEL GWF_1            PACKAGE GWF_1           CONNECTED TO MODEL GWF_1            PACKAGE RIV_SYS1         ON UNIT   1018 AT TIME STEP      1, STRESS PERIOD     44
 UBDSV06 SAVING              RIV IN MODEL GWF_1            PACKAGE GWF_1           CONNECTED TO MODEL GWF_1            PACKAGE RIV_SYS2         ON UNIT   1018 AT TIME STEP      1, STRESS PERIOD     44
 UBDSV06 SAVING              RCH IN MODEL GWF_1            PACKAGE GWF_1           CONNECTED TO MODEL GWF_1            PACKAGE RCH_MSW          ON UNIT   1018 AT TIME STEP      1, STRESS PERIOD     44

 HEAD WILL BE SAVED ON UNIT 1017 AT END OF TIME STEP    1, STRESS PERIOD   44


  VOLUME BUDGET FOR ENTIRE MODEL AT END OF TIME STEP    1, STRESS PERIOD  44
  ---------------------------------------------------------------------------------------------------

     CUMULATIVE VOLUME      L**3       RATES FOR THIS TIME STEP      L**3/T          PACKAGE NAME    
     ------------------                 ------------------------                     ----------------

           IN:                                      IN:
           ---                                      ---
              STO-SS =      158218.3659                STO-SS =        1062.8311     STORAGE                          
                 DRN =           0.0000                   DRN =           0.0000     DRN_SYS1                         
                 RIV =        9799.7451                   RIV =         557.1464     RIV_SYS1                         
                 RIV =           0.0000                   RIV =           0.0000     RIV_SYS2                         
                 RCH =       98590.2041                   RCH =        1470.1503     RCH_MSW                          

            TOTAL IN =      266608.3150              TOTAL IN =        3090.1278

          OUT:                                     OUT:
          ----                                     ----
              STO-SS =         230.1810                STO-SS =           0.0000     STORAGE                          
                 DRN =        6202.4511                   DRN =          75.9505     DRN_SYS1                         
                 RIV =      240241.2820                   RIV =        2812.7970     RIV_SYS1                         
                 RIV =       16576.7362                   RIV =         201.3823     RIV_SYS2                         
                 RCH =        3357.8410                   RCH =           0.0000     RCH_MSW                          

           TOTAL OUT =      266608.4913             TOTAL OUT =        3090.1298

            IN - OUT =          -0.1763              IN - OUT =      -2.0103E-03

 PERCENT DISCREPANCY =          -0.00     PERCENT DISCREPANCY =          -0.00




         TIME SUMMARY AT END OF TIME STEP    1 IN STRESS PERIOD   44
                    SECONDS     MINUTES      HOURS       DAYS        YEARS
                    -----------------------------------------------------------
   TIME STEP LENGTH  86400.      1440.0      24.000      1.0000     2.73785E-03
 STRESS PERIOD TIME  86400.      1440.0      24.000      1.0000     2.73785E-03
         TOTAL TIME 3.80160E+06  63360.      1056.0      44.000     0.12047    


end timestep


start timestep kper="45" kstp="1" mode="normal"

 #Stressperiod Save Options

 BEGIN READING OUTPUT CONTROL FOR STRESS PERIOD 45
      ALL TIME STEPS WILL BE SAVED
      ALL TIME STEPS WILL BE SAVED

 END READING OUTPUT CONTROL FOR STRESS PERIOD 45


 PROCESSING STORAGE PERIOD DATA
 END PROCESSING STORAGE PERIOD DATA


 STRESS PERIOD 45 IS TRANSIENT


 REUSING DRNS FROM LAST STRESS PERIOD

 REUSING RIVS FROM LAST STRESS PERIOD

 REUSING RIVS FROM LAST STRESS PERIOD

 REUSING RCHS FROM LAST STRESS PERIOD
 UBDSV06 SAVING              DRN IN MODEL GWF_1            PACKAGE GWF_1           CONNECTED TO MODEL GWF_1            PACKAGE DRN_SYS1         ON UNIT   1018 AT TIME STEP      1, STRESS PERIOD     45
 UBDSV06 SAVING              RIV IN MODEL GWF_1            PACKAGE GWF_1           CONNECTED TO MODEL GWF_1            PACKAGE RIV_SYS1         ON UNIT   1018 AT TIME STEP      1, STRESS PERIOD     45
 UBDSV06 SAVING              RIV IN MODEL GWF_1            PACKAGE GWF_1           CONNECTED TO MODEL GWF_1            PACKAGE RIV_SYS2         ON UNIT   1018 AT TIME STEP      1, STRESS PERIOD     45
 UBDSV06 SAVING              RCH IN MODEL GWF_1            PACKAGE GWF_1           CONNECTED TO MODEL GWF_1            PACKAGE RCH_MSW          ON UNIT   1018 AT TIME STEP      1, STRESS PERIOD     45

 HEAD WILL BE SAVED ON UNIT 1017 AT END OF TIME STEP    1, STRESS PERIOD   45


  VOLUME BUDGET FOR ENTIRE MODEL AT END OF TIME STEP    1, STRESS PERIOD  45
  ---------------------------------------------------------------------------------------------------

     CUMULATIVE VOLUME      L**3       RATES FOR THIS TIME STEP      L**3/T          PACKAGE NAME    
     ------------------                 ------------------------                     ----------------

           IN:                                      IN:
           ---                                      ---
              STO-SS =      159263.1221                STO-SS =        1044.7562     STORAGE                          
                 DRN =           0.0000                   DRN =           0.0000     DRN_SYS1                         
                 RIV =       10374.4397                   RIV =         574.6946     RIV_SYS1                         
                 RIV =           0.0000                   RIV =           0.0000     RIV_SYS2                         
                 RCH =       99998.8639                   RCH =        1408.6598     RCH_MSW                          

            TOTAL IN =      269636.4257              TOTAL IN =        3028.1107

          OUT:                                     OUT:
          ----                                     ----
              STO-SS =         230.1810                STO-SS =           0.0000     STORAGE                          
                 DRN =        6276.4905                   DRN =          74.0394     DRN_SYS1                         
                 RIV =      242998.7105                   RIV =        2757.4285     RIV_SYS1                         
                 RIV =       16773.3816                   RIV =         196.6454     RIV_SYS2                         
                 RCH =        3357.8410                   RCH =           0.0000     RCH_MSW                          

           TOTAL OUT =      269636.6045             TOTAL OUT =        3028.1132

            IN - OUT =          -0.1788              IN - OUT =      -2.5693E-03

 PERCENT DISCREPANCY =          -0.00     PERCENT DISCREPANCY =          -0.00




         TIME SUMMARY AT END OF TIME STEP    1 IN STRESS PERIOD   45
                    SECONDS     MINUTES      HOURS       DAYS        YEARS
                    -----------------------------------------------------------
   TIME STEP LENGTH  86400.      1440.0      24.000      1.0000     2.73785E-03
 STRESS PERIOD TIME  86400.      1440.0      24.000      1.0000     2.73785E-03
         TOTAL TIME 3.88800E+06  64800.      1080.0      45.000     0.12320    


end timestep


start timestep kper="46" kstp="1" mode="normal"

 #Stressperiod Save Options

 BEGIN READING OUTPUT CONTROL FOR STRESS PERIOD 46
      ALL TIME STEPS WILL BE SAVED
      ALL TIME STEPS WILL BE SAVED

 END READING OUTPUT CONTROL FOR STRESS PERIOD 46


 PROCESSING STORAGE PERIOD DATA
 END PROCESSING STORAGE PERIOD DATA


 STRESS PERIOD 46 IS TRANSIENT


 REUSING DRNS FROM LAST STRESS PERIOD

 REUSING RIVS FROM LAST STRESS PERIOD

 REUSING RIVS FROM LAST STRESS PERIOD

 REUSING RCHS FROM LAST STRESS PERIOD
 UBDSV06 SAVING              DRN IN MODEL GWF_1            PACKAGE GWF_1           CONNECTED TO MODEL GWF_1            PACKAGE DRN_SYS1         ON UNIT   1018 AT TIME STEP      1, STRESS PERIOD     46
 UBDSV06 SAVING              RIV IN MODEL GWF_1            PACKAGE GWF_1           CONNECTED TO MODEL GWF_1            PACKAGE RIV_SYS1         ON UNIT   1018 AT TIME STEP      1, STRESS PERIOD     46
 UBDSV06 SAVING              RIV IN MODEL GWF_1            PACKAGE GWF_1           CONNECTED TO MODEL GWF_1            PACKAGE RIV_SYS2         ON UNIT   1018 AT TIME STEP      1, STRESS PERIOD     46
 UBDSV06 SAVING              RCH IN MODEL GWF_1            PACKAGE GWF_1           CONNECTED TO MODEL GWF_1            PACKAGE RCH_MSW          ON UNIT   1018 AT TIME STEP      1, STRESS PERIOD     46

 HEAD WILL BE SAVED ON UNIT 1017 AT END OF TIME STEP    1, STRESS PERIOD   46


  VOLUME BUDGET FOR ENTIRE MODEL AT END OF TIME STEP    1, STRESS PERIOD  46
  ---------------------------------------------------------------------------------------------------

     CUMULATIVE VOLUME      L**3       RATES FOR THIS TIME STEP      L**3/T          PACKAGE NAME    
     ------------------                 ------------------------                     ----------------

           IN:                                      IN:
           ---                                      ---
              STO-SS =      160290.0430                STO-SS =        1026.9209     STORAGE                          
                 DRN =           0.0000                   DRN =           0.0000     DRN_SYS1                         
                 RIV =       10966.5050                   RIV =         592.0653     RIV_SYS1                         
                 RIV =           0.0000                   RIV =           0.0000     RIV_SYS2                         
                 RCH =      101347.7764                   RCH =        1348.9125     RCH_MSW                          

            TOTAL IN =      272604.3244              TOTAL IN =        2967.8988

          OUT:                                     OUT:
          ----                                     ----
              STO-SS =         230.1810                STO-SS =           0.0000     STORAGE                          
                 DRN =        6348.6642                   DRN =          72.1737     DRN_SYS1                         
                 RIV =      245702.4046                   RIV =        2703.6941     RIV_SYS1                         
                 RIV =       16965.4165                   RIV =         192.0349     RIV_SYS2                         
                 RCH =        3357.8410                   RCH =           0.0000     RCH_MSW                          

           TOTAL OUT =      272604.5072             TOTAL OUT =        2967.9027

            IN - OUT =          -0.1828              IN - OUT =      -3.9679E-03

 PERCENT DISCREPANCY =          -0.00     PERCENT DISCREPANCY =          -0.00




         TIME SUMMARY AT END OF TIME STEP    1 IN STRESS PERIOD   46
                    SECONDS     MINUTES      HOURS       DAYS        YEARS
                    -----------------------------------------------------------
   TIME STEP LENGTH  86400.      1440.0      24.000      1.0000     2.73785E-03
 STRESS PERIOD TIME  86400.      1440.0      24.000      1.0000     2.73785E-03
         TOTAL TIME 3.97440E+06  66240.      1104.0      46.000     0.12594    


end timestep


start timestep kper="47" kstp="1" mode="normal"

 #Stressperiod Save Options

 BEGIN READING OUTPUT CONTROL FOR STRESS PERIOD 47
      ALL TIME STEPS WILL BE SAVED
      ALL TIME STEPS WILL BE SAVED

 END READING OUTPUT CONTROL FOR STRESS PERIOD 47


 PROCESSING STORAGE PERIOD DATA
 END PROCESSING STORAGE PERIOD DATA


 STRESS PERIOD 47 IS TRANSIENT


 REUSING DRNS FROM LAST STRESS PERIOD

 REUSING RIVS FROM LAST STRESS PERIOD

 REUSING RIVS FROM LAST STRESS PERIOD

 REUSING RCHS FROM LAST STRESS PERIOD
 UBDSV06 SAVING              DRN IN MODEL GWF_1            PACKAGE GWF_1           CONNECTED TO MODEL GWF_1            PACKAGE DRN_SYS1         ON UNIT   1018 AT TIME STEP      1, STRESS PERIOD     47
 UBDSV06 SAVING              RIV IN MODEL GWF_1            PACKAGE GWF_1           CONNECTED TO MODEL GWF_1            PACKAGE RIV_SYS1         ON UNIT   1018 AT TIME STEP      1, STRESS PERIOD     47
 UBDSV06 SAVING              RIV IN MODEL GWF_1            PACKAGE GWF_1           CONNECTED TO MODEL GWF_1            PACKAGE RIV_SYS2         ON UNIT   1018 AT TIME STEP      1, STRESS PERIOD     47
 UBDSV06 SAVING              RCH IN MODEL GWF_1            PACKAGE GWF_1           CONNECTED TO MODEL GWF_1            PACKAGE RCH_MSW          ON UNIT   1018 AT TIME STEP      1, STRESS PERIOD     47

 HEAD WILL BE SAVED ON UNIT 1017 AT END OF TIME STEP    1, STRESS PERIOD   47


  VOLUME BUDGET FOR ENTIRE MODEL AT END OF TIME STEP    1, STRESS PERIOD  47
  ---------------------------------------------------------------------------------------------------

     CUMULATIVE VOLUME      L**3       RATES FOR THIS TIME STEP      L**3/T          PACKAGE NAME    
     ------------------                 ------------------------                     ----------------

           IN:                                      IN:
           ---                                      ---
              STO-SS =      161300.6260                STO-SS =        1010.5830     STORAGE                          
                 DRN =           0.0000                   DRN =           0.0000     DRN_SYS1                         
                 RIV =       11575.6424                   RIV =         609.1374     RIV_SYS1                         
                 RIV =           0.0000                   RIV =           0.0000     RIV_SYS2                         
                 RCH =      102637.2571                   RCH =        1289.4807     RCH_MSW                          

            TOTAL IN =      275513.5256              TOTAL IN =        2909.2011

          OUT:                                     OUT:
          ----                                     ----
              STO-SS =         230.1810                STO-SS =           0.0000     STORAGE                          
                 DRN =        6419.0167                   DRN =          70.3525     DRN_SYS1                         
                 RIV =      248353.7034                   RIV =        2651.2988     RIV_SYS1                         
                 RIV =       17152.9625                   RIV =         187.5460     RIV_SYS2                         
                 RCH =        3357.8410                   RCH =           0.0000     RCH_MSW                          

           TOTAL OUT =      275513.7045             TOTAL OUT =        2909.1973

            IN - OUT =          -0.1790              IN - OUT =       3.8251E-03

 PERCENT DISCREPANCY =          -0.00     PERCENT DISCREPANCY =           0.00




         TIME SUMMARY AT END OF TIME STEP    1 IN STRESS PERIOD   47
                    SECONDS     MINUTES      HOURS       DAYS        YEARS
                    -----------------------------------------------------------
   TIME STEP LENGTH  86400.      1440.0      24.000      1.0000     2.73785E-03
 STRESS PERIOD TIME  86400.      1440.0      24.000      1.0000     2.73785E-03
         TOTAL TIME 4.06080E+06  67680.      1128.0      47.000     0.12868    


end timestep


start timestep kper="48" kstp="1" mode="normal"

 #Stressperiod Save Options

 BEGIN READING OUTPUT CONTROL FOR STRESS PERIOD 48
      ALL TIME STEPS WILL BE SAVED
      ALL TIME STEPS WILL BE SAVED

 END READING OUTPUT CONTROL FOR STRESS PERIOD 48


 PROCESSING STORAGE PERIOD DATA
 END PROCESSING STORAGE PERIOD DATA


 STRESS PERIOD 48 IS TRANSIENT


 REUSING DRNS FROM LAST STRESS PERIOD

 REUSING RIVS FROM LAST STRESS PERIOD

 REUSING RIVS FROM LAST STRESS PERIOD

 REUSING RCHS FROM LAST STRESS PERIOD
 UBDSV06 SAVING              DRN IN MODEL GWF_1            PACKAGE GWF_1           CONNECTED TO MODEL GWF_1            PACKAGE DRN_SYS1         ON UNIT   1018 AT TIME STEP      1, STRESS PERIOD     48
 UBDSV06 SAVING              RIV IN MODEL GWF_1            PACKAGE GWF_1           CONNECTED TO MODEL GWF_1            PACKAGE RIV_SYS1         ON UNIT   1018 AT TIME STEP      1, STRESS PERIOD     48
 UBDSV06 SAVING              RIV IN MODEL GWF_1            PACKAGE GWF_1           CONNECTED TO MODEL GWF_1            PACKAGE RIV_SYS2         ON UNIT   1018 AT TIME STEP      1, STRESS PERIOD     48
 UBDSV06 SAVING              RCH IN MODEL GWF_1            PACKAGE GWF_1           CONNECTED TO MODEL GWF_1            PACKAGE RCH_MSW          ON UNIT   1018 AT TIME STEP      1, STRESS PERIOD     48

 HEAD WILL BE SAVED ON UNIT 1017 AT END OF TIME STEP    1, STRESS PERIOD   48


  VOLUME BUDGET FOR ENTIRE MODEL AT END OF TIME STEP    1, STRESS PERIOD  48
  ---------------------------------------------------------------------------------------------------

     CUMULATIVE VOLUME      L**3       RATES FOR THIS TIME STEP      L**3/T          PACKAGE NAME    
     ------------------                 ------------------------                     ----------------

           IN:                                      IN:
           ---                                      ---
              STO-SS =      162295.1300                STO-SS =         994.5040     STORAGE                          
                 DRN =           0.0000                   DRN =           0.0000     DRN_SYS1                         
                 RIV =       12202.3452                   RIV =         626.7028     RIV_SYS1                         
                 RIV =           0.0000                   RIV =           0.0000     RIV_SYS2                         
                 RCH =      103868.9140                   RCH =        1231.6569     RCH_MSW                          

            TOTAL IN =      278366.3892              TOTAL IN =        2852.8636

          OUT:                                     OUT:
          ----                                     ----
              STO-SS =         230.1810                STO-SS =           0.0000     STORAGE                          
                 DRN =        6487.5927                   DRN =          68.5760     DRN_SYS1                         
                 RIV =      250954.8292                   RIV =        2601.1258     RIV_SYS1                         
                 RIV =       17336.1311                   RIV =         183.1686     RIV_SYS2                         
                 RCH =        3357.8410                   RCH =           0.0000     RCH_MSW                          

           TOTAL OUT =      278366.5748             TOTAL OUT =        2852.8703

            IN - OUT =          -0.1857              IN - OUT =      -6.7005E-03

 PERCENT DISCREPANCY =          -0.00     PERCENT DISCREPANCY =          -0.00




         TIME SUMMARY AT END OF TIME STEP    1 IN STRESS PERIOD   48
                    SECONDS     MINUTES      HOURS       DAYS        YEARS
                    -----------------------------------------------------------
   TIME STEP LENGTH  86400.      1440.0      24.000      1.0000     2.73785E-03
 STRESS PERIOD TIME  86400.      1440.0      24.000      1.0000     2.73785E-03
         TOTAL TIME 4.14720E+06  69120.      1152.0      48.000     0.13142    


end timestep


start timestep kper="49" kstp="1" mode="normal"

 #Stressperiod Save Options

 BEGIN READING OUTPUT CONTROL FOR STRESS PERIOD 49
      ALL TIME STEPS WILL BE SAVED
      ALL TIME STEPS WILL BE SAVED

 END READING OUTPUT CONTROL FOR STRESS PERIOD 49


 PROCESSING STORAGE PERIOD DATA
 END PROCESSING STORAGE PERIOD DATA


 STRESS PERIOD 49 IS TRANSIENT


 REUSING DRNS FROM LAST STRESS PERIOD

 REUSING RIVS FROM LAST STRESS PERIOD

 REUSING RIVS FROM LAST STRESS PERIOD

 REUSING RCHS FROM LAST STRESS PERIOD
 UBDSV06 SAVING              DRN IN MODEL GWF_1            PACKAGE GWF_1           CONNECTED TO MODEL GWF_1            PACKAGE DRN_SYS1         ON UNIT   1018 AT TIME STEP      1, STRESS PERIOD     49
 UBDSV06 SAVING              RIV IN MODEL GWF_1            PACKAGE GWF_1           CONNECTED TO MODEL GWF_1            PACKAGE RIV_SYS1         ON UNIT   1018 AT TIME STEP      1, STRESS PERIOD     49
 UBDSV06 SAVING              RIV IN MODEL GWF_1            PACKAGE GWF_1           CONNECTED TO MODEL GWF_1            PACKAGE RIV_SYS2         ON UNIT   1018 AT TIME STEP      1, STRESS PERIOD     49
 UBDSV06 SAVING              RCH IN MODEL GWF_1            PACKAGE GWF_1           CONNECTED TO MODEL GWF_1            PACKAGE RCH_MSW          ON UNIT   1018 AT TIME STEP      1, STRESS PERIOD     49

 HEAD WILL BE SAVED ON UNIT 1017 AT END OF TIME STEP    1, STRESS PERIOD   49


  VOLUME BUDGET FOR ENTIRE MODEL AT END OF TIME STEP    1, STRESS PERIOD  49
  ---------------------------------------------------------------------------------------------------

     CUMULATIVE VOLUME      L**3       RATES FOR THIS TIME STEP      L**3/T          PACKAGE NAME    
     ------------------                 ------------------------                     ----------------

           IN:                                      IN:
           ---                                      ---
              STO-SS =      163272.9831                STO-SS =         977.8531     STORAGE                          
                 DRN =           0.0000                   DRN =           0.0000     DRN_SYS1                         
                 RIV =       12846.5304                   RIV =         644.1852     RIV_SYS1                         
                 RIV =           0.0000                   RIV =           0.0000     RIV_SYS2                         
                 RCH =      105045.3225                   RCH =        1176.4085     RCH_MSW                          

            TOTAL IN =      281164.8360              TOTAL IN =        2798.4468

          OUT:                                     OUT:
          ----                                     ----
              STO-SS =         230.1810                STO-SS =           0.0000     STORAGE                          
                 DRN =        6554.4405                   DRN =          66.8478     DRN_SYS1                         
                 RIV =      253507.5114                   RIV =        2552.6822     RIV_SYS1                         
                 RIV =       17515.0463                   RIV =         178.9153     RIV_SYS2                         
                 RCH =        3357.8410                   RCH =           0.0000     RCH_MSW                          

           TOTAL OUT =      281165.0201             TOTAL OUT =        2798.4453

            IN - OUT =          -0.1841              IN - OUT =       1.5411E-03

 PERCENT DISCREPANCY =          -0.00     PERCENT DISCREPANCY =           0.00




         TIME SUMMARY AT END OF TIME STEP    1 IN STRESS PERIOD   49
                    SECONDS     MINUTES      HOURS       DAYS        YEARS
                    -----------------------------------------------------------
   TIME STEP LENGTH  86400.      1440.0      24.000      1.0000     2.73785E-03
 STRESS PERIOD TIME  86400.      1440.0      24.000      1.0000     2.73785E-03
         TOTAL TIME 4.23360E+06  70560.      1176.0      49.000     0.13415    


end timestep


start timestep kper="50" kstp="1" mode="normal"

 #Stressperiod Save Options

 BEGIN READING OUTPUT CONTROL FOR STRESS PERIOD 50
      ALL TIME STEPS WILL BE SAVED
      ALL TIME STEPS WILL BE SAVED

 END READING OUTPUT CONTROL FOR STRESS PERIOD 50


 PROCESSING STORAGE PERIOD DATA
 END PROCESSING STORAGE PERIOD DATA


 STRESS PERIOD 50 IS TRANSIENT


 REUSING DRNS FROM LAST STRESS PERIOD

 REUSING RIVS FROM LAST STRESS PERIOD

 REUSING RIVS FROM LAST STRESS PERIOD

 REUSING RCHS FROM LAST STRESS PERIOD
 UBDSV06 SAVING              DRN IN MODEL GWF_1            PACKAGE GWF_1           CONNECTED TO MODEL GWF_1            PACKAGE DRN_SYS1         ON UNIT   1018 AT TIME STEP      1, STRESS PERIOD     50
 UBDSV06 SAVING              RIV IN MODEL GWF_1            PACKAGE GWF_1           CONNECTED TO MODEL GWF_1            PACKAGE RIV_SYS1         ON UNIT   1018 AT TIME STEP      1, STRESS PERIOD     50
 UBDSV06 SAVING              RIV IN MODEL GWF_1            PACKAGE GWF_1           CONNECTED TO MODEL GWF_1            PACKAGE RIV_SYS2         ON UNIT   1018 AT TIME STEP      1, STRESS PERIOD     50
 UBDSV06 SAVING              RCH IN MODEL GWF_1            PACKAGE GWF_1           CONNECTED TO MODEL GWF_1            PACKAGE RCH_MSW          ON UNIT   1018 AT TIME STEP      1, STRESS PERIOD     50

 HEAD WILL BE SAVED ON UNIT 1017 AT END OF TIME STEP    1, STRESS PERIOD   50


  VOLUME BUDGET FOR ENTIRE MODEL AT END OF TIME STEP    1, STRESS PERIOD  50
  ---------------------------------------------------------------------------------------------------

     CUMULATIVE VOLUME      L**3       RATES FOR THIS TIME STEP      L**3/T          PACKAGE NAME    
     ------------------                 ------------------------                     ----------------

           IN:                                      IN:
           ---                                      ---
              STO-SS =      164233.8934                STO-SS =         960.9103     STORAGE                          
                 DRN =           0.0000                   DRN =           0.0000     DRN_SYS1                         
                 RIV =       13507.7292                   RIV =         661.1988     RIV_SYS1                         
                 RIV =           0.0000                   RIV =           0.0000     RIV_SYS2                         
                 RCH =      106168.7369                   RCH =        1123.4144     RCH_MSW                          

            TOTAL IN =      283910.3594              TOTAL IN =        2745.5234

          OUT:                                     OUT:
          ----                                     ----
              STO-SS =         230.1810                STO-SS =           0.0000     STORAGE                          
                 DRN =        6619.6091                   DRN =          65.1686     DRN_SYS1                         
                 RIV =      256013.0964                   RIV =        2505.5850     RIV_SYS1                         
                 RIV =       17689.8161                   RIV =         174.7698     RIV_SYS2                         
                 RCH =        3357.8410                   RCH =           0.0000     RCH_MSW                          

           TOTAL OUT =      283910.5436             TOTAL OUT =        2745.5234

            IN - OUT =          -0.1841              IN - OUT =       1.7915E-06

 PERCENT DISCREPANCY =          -0.00     PERCENT DISCREPANCY =           0.00




         TIME SUMMARY AT END OF TIME STEP    1 IN STRESS PERIOD   50
                    SECONDS     MINUTES      HOURS       DAYS        YEARS
                    -----------------------------------------------------------
   TIME STEP LENGTH  86400.      1440.0      24.000      1.0000     2.73785E-03
 STRESS PERIOD TIME  86400.      1440.0      24.000      1.0000     2.73785E-03
         TOTAL TIME 4.32000E+06  72000.      1200.0      50.000     0.13689    


end timestep


start timestep kper="51" kstp="1" mode="normal"

 #Stressperiod Save Options

 BEGIN READING OUTPUT CONTROL FOR STRESS PERIOD 51
      ALL TIME STEPS WILL BE SAVED
      ALL TIME STEPS WILL BE SAVED

 END READING OUTPUT CONTROL FOR STRESS PERIOD 51


 PROCESSING STORAGE PERIOD DATA
 END PROCESSING STORAGE PERIOD DATA


 STRESS PERIOD 51 IS TRANSIENT


 REUSING DRNS FROM LAST STRESS PERIOD

 REUSING RIVS FROM LAST STRESS PERIOD

 REUSING RIVS FROM LAST STRESS PERIOD

 REUSING RCHS FROM LAST STRESS PERIOD
 UBDSV06 SAVING              DRN IN MODEL GWF_1            PACKAGE GWF_1           CONNECTED TO MODEL GWF_1            PACKAGE DRN_SYS1         ON UNIT   1018 AT TIME STEP      1, STRESS PERIOD     51
 UBDSV06 SAVING              RIV IN MODEL GWF_1            PACKAGE GWF_1           CONNECTED TO MODEL GWF_1            PACKAGE RIV_SYS1         ON UNIT   1018 AT TIME STEP      1, STRESS PERIOD     51
 UBDSV06 SAVING              RIV IN MODEL GWF_1            PACKAGE GWF_1           CONNECTED TO MODEL GWF_1            PACKAGE RIV_SYS2         ON UNIT   1018 AT TIME STEP      1, STRESS PERIOD     51
 UBDSV06 SAVING              RCH IN MODEL GWF_1            PACKAGE GWF_1           CONNECTED TO MODEL GWF_1            PACKAGE RCH_MSW          ON UNIT   1018 AT TIME STEP      1, STRESS PERIOD     51

 HEAD WILL BE SAVED ON UNIT 1017 AT END OF TIME STEP    1, STRESS PERIOD   51


  VOLUME BUDGET FOR ENTIRE MODEL AT END OF TIME STEP    1, STRESS PERIOD  51
  ---------------------------------------------------------------------------------------------------

     CUMULATIVE VOLUME      L**3       RATES FOR THIS TIME STEP      L**3/T          PACKAGE NAME    
     ------------------                 ------------------------                     ----------------

           IN:                                      IN:
           ---                                      ---
              STO-SS =      165177.1833                STO-SS =         943.2899     STORAGE                          
                 DRN =           0.0000                   DRN =           0.0000     DRN_SYS1                         
                 RIV =       14185.4062                   RIV =         677.6770     RIV_SYS1                         
                 RIV =           0.0000                   RIV =           0.0000     RIV_SYS2                         
                 RCH =      107241.9861                   RCH =        1073.2493     RCH_MSW                          

            TOTAL IN =      286604.5756              TOTAL IN =        2694.2161

          OUT:                                     OUT:
          ----                                     ----
              STO-SS =         230.1810                STO-SS =           0.0000     STORAGE                          
                 DRN =        6683.1452                   DRN =          63.5360     DRN_SYS1                         
                 RIV =      258473.0437                   RIV =        2459.9473     RIV_SYS1                         
                 RIV =       17860.5495                   RIV =         170.7333     RIV_SYS2                         
                 RCH =        3357.8410                   RCH =           0.0000     RCH_MSW                          

           TOTAL OUT =      286604.7602             TOTAL OUT =        2694.2166

            IN - OUT =          -0.1846              IN - OUT =      -4.9022E-04

 PERCENT DISCREPANCY =          -0.00     PERCENT DISCREPANCY =          -0.00




         TIME SUMMARY AT END OF TIME STEP    1 IN STRESS PERIOD   51
                    SECONDS     MINUTES      HOURS       DAYS        YEARS
                    -----------------------------------------------------------
   TIME STEP LENGTH  86400.      1440.0      24.000      1.0000     2.73785E-03
 STRESS PERIOD TIME  86400.      1440.0      24.000      1.0000     2.73785E-03
         TOTAL TIME 4.40640E+06  73440.      1224.0      51.000     0.13963    


end timestep


start timestep kper="52" kstp="1" mode="normal"

 #Stressperiod Save Options

 BEGIN READING OUTPUT CONTROL FOR STRESS PERIOD 52
      ALL TIME STEPS WILL BE SAVED
      ALL TIME STEPS WILL BE SAVED

 END READING OUTPUT CONTROL FOR STRESS PERIOD 52


 PROCESSING STORAGE PERIOD DATA
 END PROCESSING STORAGE PERIOD DATA


 STRESS PERIOD 52 IS TRANSIENT


 REUSING DRNS FROM LAST STRESS PERIOD

 REUSING RIVS FROM LAST STRESS PERIOD

 REUSING RIVS FROM LAST STRESS PERIOD

 REUSING RCHS FROM LAST STRESS PERIOD
 UBDSV06 SAVING              DRN IN MODEL GWF_1            PACKAGE GWF_1           CONNECTED TO MODEL GWF_1            PACKAGE DRN_SYS1         ON UNIT   1018 AT TIME STEP      1, STRESS PERIOD     52
 UBDSV06 SAVING              RIV IN MODEL GWF_1            PACKAGE GWF_1           CONNECTED TO MODEL GWF_1            PACKAGE RIV_SYS1         ON UNIT   1018 AT TIME STEP      1, STRESS PERIOD     52
 UBDSV06 SAVING              RIV IN MODEL GWF_1            PACKAGE GWF_1           CONNECTED TO MODEL GWF_1            PACKAGE RIV_SYS2         ON UNIT   1018 AT TIME STEP      1, STRESS PERIOD     52
 UBDSV06 SAVING              RCH IN MODEL GWF_1            PACKAGE GWF_1           CONNECTED TO MODEL GWF_1            PACKAGE RCH_MSW          ON UNIT   1018 AT TIME STEP      1, STRESS PERIOD     52

 HEAD WILL BE SAVED ON UNIT 1017 AT END OF TIME STEP    1, STRESS PERIOD   52


  VOLUME BUDGET FOR ENTIRE MODEL AT END OF TIME STEP    1, STRESS PERIOD  52
  ---------------------------------------------------------------------------------------------------

     CUMULATIVE VOLUME      L**3       RATES FOR THIS TIME STEP      L**3/T          PACKAGE NAME    
     ------------------                 ------------------------                     ----------------

           IN:                                      IN:
           ---                                      ---
              STO-SS =      166101.4922                STO-SS =         924.3089     STORAGE                          
                 DRN =           0.0000                   DRN =           0.0000     DRN_SYS1                         
                 RIV =       14878.9572                   RIV =         693.5511     RIV_SYS1                         
                 RIV =           0.0000                   RIV =           0.0000     RIV_SYS2                         
                 RCH =      108268.7169                   RCH =        1026.7308     RCH_MSW                          

            TOTAL IN =      289249.1663              TOTAL IN =        2644.5907

          OUT:                                     OUT:
          ----                                     ----
              STO-SS =         230.1810                STO-SS =           0.0000     STORAGE                          
                 DRN =        6745.0940                   DRN =          61.9488     DRN_SYS1                         
                 RIV =      260888.8758                   RIV =        2415.8322     RIV_SYS1                         
                 RIV =       18027.3581                   RIV =         166.8086     RIV_SYS2                         
                 RCH =        3357.8410                   RCH =           0.0000     RCH_MSW                          

           TOTAL OUT =      289249.3498             TOTAL OUT =        2644.5896

            IN - OUT =          -0.1835              IN - OUT =       1.1308E-03

 PERCENT DISCREPANCY =          -0.00     PERCENT DISCREPANCY =           0.00




         TIME SUMMARY AT END OF TIME STEP    1 IN STRESS PERIOD   52
                    SECONDS     MINUTES      HOURS       DAYS        YEARS
                    -----------------------------------------------------------
   TIME STEP LENGTH  86400.      1440.0      24.000      1.0000     2.73785E-03
 STRESS PERIOD TIME  86400.      1440.0      24.000      1.0000     2.73785E-03
         TOTAL TIME 4.49280E+06  74880.      1248.0      52.000     0.14237    


end timestep


start timestep kper="53" kstp="1" mode="normal"

 #Stressperiod Save Options

 BEGIN READING OUTPUT CONTROL FOR STRESS PERIOD 53
      ALL TIME STEPS WILL BE SAVED
      ALL TIME STEPS WILL BE SAVED

 END READING OUTPUT CONTROL FOR STRESS PERIOD 53


 PROCESSING STORAGE PERIOD DATA
 END PROCESSING STORAGE PERIOD DATA


 STRESS PERIOD 53 IS TRANSIENT


 REUSING DRNS FROM LAST STRESS PERIOD

 REUSING RIVS FROM LAST STRESS PERIOD

 REUSING RIVS FROM LAST STRESS PERIOD

 REUSING RCHS FROM LAST STRESS PERIOD
 UBDSV06 SAVING              DRN IN MODEL GWF_1            PACKAGE GWF_1           CONNECTED TO MODEL GWF_1            PACKAGE DRN_SYS1         ON UNIT   1018 AT TIME STEP      1, STRESS PERIOD     53
 UBDSV06 SAVING              RIV IN MODEL GWF_1            PACKAGE GWF_1           CONNECTED TO MODEL GWF_1            PACKAGE RIV_SYS1         ON UNIT   1018 AT TIME STEP      1, STRESS PERIOD     53
 UBDSV06 SAVING              RIV IN MODEL GWF_1            PACKAGE GWF_1           CONNECTED TO MODEL GWF_1            PACKAGE RIV_SYS2         ON UNIT   1018 AT TIME STEP      1, STRESS PERIOD     53
 UBDSV06 SAVING              RCH IN MODEL GWF_1            PACKAGE GWF_1           CONNECTED TO MODEL GWF_1            PACKAGE RCH_MSW          ON UNIT   1018 AT TIME STEP      1, STRESS PERIOD     53

 HEAD WILL BE SAVED ON UNIT 1017 AT END OF TIME STEP    1, STRESS PERIOD   53


  VOLUME BUDGET FOR ENTIRE MODEL AT END OF TIME STEP    1, STRESS PERIOD  53
  ---------------------------------------------------------------------------------------------------

     CUMULATIVE VOLUME      L**3       RATES FOR THIS TIME STEP      L**3/T          PACKAGE NAME    
     ------------------                 ------------------------                     ----------------

           IN:                                      IN:
           ---                                      ---
              STO-SS =      167004.8688                STO-SS =         903.3767     STORAGE                          
                 DRN =           0.0000                   DRN =           0.0000     DRN_SYS1                         
                 RIV =       15588.7697                   RIV =         709.8125     RIV_SYS1                         
                 RIV =           0.0000                   RIV =           0.0000     RIV_SYS2                         
                 RCH =      109253.1947                   RCH =         984.4778     RCH_MSW                          

            TOTAL IN =      291846.8332              TOTAL IN =        2597.6669

          OUT:                                     OUT:
          ----                                     ----
              STO-SS =         230.1810                STO-SS =           0.0000     STORAGE                          
                 DRN =        6805.4965                   DRN =          60.4026     DRN_SYS1                         
                 RIV =      263263.1482                   RIV =        2374.2723     RIV_SYS1                         
                 RIV =       18190.3507                   RIV =         162.9926     RIV_SYS2                         
                 RCH =        3357.8410                   RCH =           0.0000     RCH_MSW                          

           TOTAL OUT =      291847.0173             TOTAL OUT =        2597.6675

            IN - OUT =          -0.1840              IN - OUT =      -5.3747E-04

 PERCENT DISCREPANCY =          -0.00     PERCENT DISCREPANCY =          -0.00




         TIME SUMMARY AT END OF TIME STEP    1 IN STRESS PERIOD   53
                    SECONDS     MINUTES      HOURS       DAYS        YEARS
                    -----------------------------------------------------------
   TIME STEP LENGTH  86400.      1440.0      24.000      1.0000     2.73785E-03
 STRESS PERIOD TIME  86400.      1440.0      24.000      1.0000     2.73785E-03
         TOTAL TIME 4.57920E+06  76320.      1272.0      53.000     0.14511    


end timestep


start timestep kper="54" kstp="1" mode="normal"

 #Stressperiod Save Options

 BEGIN READING OUTPUT CONTROL FOR STRESS PERIOD 54
      ALL TIME STEPS WILL BE SAVED
      ALL TIME STEPS WILL BE SAVED

 END READING OUTPUT CONTROL FOR STRESS PERIOD 54


 PROCESSING STORAGE PERIOD DATA
 END PROCESSING STORAGE PERIOD DATA


 STRESS PERIOD 54 IS TRANSIENT


 REUSING DRNS FROM LAST STRESS PERIOD

 REUSING RIVS FROM LAST STRESS PERIOD

 REUSING RIVS FROM LAST STRESS PERIOD

 REUSING RCHS FROM LAST STRESS PERIOD
 UBDSV06 SAVING              DRN IN MODEL GWF_1            PACKAGE GWF_1           CONNECTED TO MODEL GWF_1            PACKAGE DRN_SYS1         ON UNIT   1018 AT TIME STEP      1, STRESS PERIOD     54
 UBDSV06 SAVING              RIV IN MODEL GWF_1            PACKAGE GWF_1           CONNECTED TO MODEL GWF_1            PACKAGE RIV_SYS1         ON UNIT   1018 AT TIME STEP      1, STRESS PERIOD     54
 UBDSV06 SAVING              RIV IN MODEL GWF_1            PACKAGE GWF_1           CONNECTED TO MODEL GWF_1            PACKAGE RIV_SYS2         ON UNIT   1018 AT TIME STEP      1, STRESS PERIOD     54
 UBDSV06 SAVING              RCH IN MODEL GWF_1            PACKAGE GWF_1           CONNECTED TO MODEL GWF_1            PACKAGE RCH_MSW          ON UNIT   1018 AT TIME STEP      1, STRESS PERIOD     54

 HEAD WILL BE SAVED ON UNIT 1017 AT END OF TIME STEP    1, STRESS PERIOD   54


  VOLUME BUDGET FOR ENTIRE MODEL AT END OF TIME STEP    1, STRESS PERIOD  54
  ---------------------------------------------------------------------------------------------------

     CUMULATIVE VOLUME      L**3       RATES FOR THIS TIME STEP      L**3/T          PACKAGE NAME    
     ------------------                 ------------------------                     ----------------

           IN:                                      IN:
           ---                                      ---
              STO-SS =      167886.1007                STO-SS =         881.2318     STORAGE                          
                 DRN =           0.0000                   DRN =           0.0000     DRN_SYS1                         
                 RIV =       16314.4403                   RIV =         725.6706     RIV_SYS1                         
                 RIV =           0.0000                   RIV =           0.0000     RIV_SYS2                         
                 RCH =      110199.1258                   RCH =         945.9311     RCH_MSW                          

            TOTAL IN =      294399.6668              TOTAL IN =        2552.8336

          OUT:                                     OUT:
          ----                                     ----
              STO-SS =         230.1810                STO-SS =           0.0000     STORAGE                          
                 DRN =        6864.3965                   DRN =          58.9000     DRN_SYS1                         
                 RIV =      265597.7931                   RIV =        2334.6449     RIV_SYS1                         
                 RIV =       18349.6415                   RIV =         159.2908     RIV_SYS2                         
                 RCH =        3357.8410                   RCH =           0.0000     RCH_MSW                          

           TOTAL OUT =      294399.8530             TOTAL OUT =        2552.8357

            IN - OUT =          -0.1862              IN - OUT =      -2.1462E-03

 PERCENT DISCREPANCY =          -0.00     PERCENT DISCREPANCY =          -0.00




         TIME SUMMARY AT END OF TIME STEP    1 IN STRESS PERIOD   54
                    SECONDS     MINUTES      HOURS       DAYS        YEARS
                    -----------------------------------------------------------
   TIME STEP LENGTH  86400.      1440.0      24.000      1.0000     2.73785E-03
 STRESS PERIOD TIME  86400.      1440.0      24.000      1.0000     2.73785E-03
         TOTAL TIME 4.66560E+06  77760.      1296.0      54.000     0.14784    


end timestep


start timestep kper="55" kstp="1" mode="normal"

 #Stressperiod Save Options

 BEGIN READING OUTPUT CONTROL FOR STRESS PERIOD 55
      ALL TIME STEPS WILL BE SAVED
      ALL TIME STEPS WILL BE SAVED

 END READING OUTPUT CONTROL FOR STRESS PERIOD 55


 PROCESSING STORAGE PERIOD DATA
 END PROCESSING STORAGE PERIOD DATA


 STRESS PERIOD 55 IS TRANSIENT


 REUSING DRNS FROM LAST STRESS PERIOD

 REUSING RIVS FROM LAST STRESS PERIOD

 REUSING RIVS FROM LAST STRESS PERIOD

 REUSING RCHS FROM LAST STRESS PERIOD
 UBDSV06 SAVING              DRN IN MODEL GWF_1            PACKAGE GWF_1           CONNECTED TO MODEL GWF_1            PACKAGE DRN_SYS1         ON UNIT   1018 AT TIME STEP      1, STRESS PERIOD     55
 UBDSV06 SAVING              RIV IN MODEL GWF_1            PACKAGE GWF_1           CONNECTED TO MODEL GWF_1            PACKAGE RIV_SYS1         ON UNIT   1018 AT TIME STEP      1, STRESS PERIOD     55
 UBDSV06 SAVING              RIV IN MODEL GWF_1            PACKAGE GWF_1           CONNECTED TO MODEL GWF_1            PACKAGE RIV_SYS2         ON UNIT   1018 AT TIME STEP      1, STRESS PERIOD     55
 UBDSV06 SAVING              RCH IN MODEL GWF_1            PACKAGE GWF_1           CONNECTED TO MODEL GWF_1            PACKAGE RCH_MSW          ON UNIT   1018 AT TIME STEP      1, STRESS PERIOD     55

 HEAD WILL BE SAVED ON UNIT 1017 AT END OF TIME STEP    1, STRESS PERIOD   55


  VOLUME BUDGET FOR ENTIRE MODEL AT END OF TIME STEP    1, STRESS PERIOD  55
  ---------------------------------------------------------------------------------------------------

     CUMULATIVE VOLUME      L**3       RATES FOR THIS TIME STEP      L**3/T          PACKAGE NAME    
     ------------------                 ------------------------                     ----------------

           IN:                                      IN:
           ---                                      ---
              STO-SS =      168734.6595                STO-SS =         848.5588     STORAGE                          
                 DRN =           0.0000                   DRN =           0.0000     DRN_SYS1                         
                 RIV =       17054.6294                   RIV =         740.1891     RIV_SYS1                         
                 RIV =           0.0000                   RIV =           0.0000     RIV_SYS2                         
                 RCH =      111121.7598                   RCH =         922.6340     RCH_MSW                          

            TOTAL IN =      296911.0487              TOTAL IN =        2511.3819

          OUT:                                     OUT:
          ----                                     ----
              STO-SS =         230.1810                STO-SS =           0.0000     STORAGE                          
                 DRN =        6921.8384                   DRN =          57.4418     DRN_SYS1                         
                 RIV =      267896.0267                   RIV =        2298.2337     RIV_SYS1                         
                 RIV =       18505.3507                   RIV =         155.7093     RIV_SYS2                         
                 RCH =        3357.8410                   RCH =           0.0000     RCH_MSW                          

           TOTAL OUT =      296911.2378             TOTAL OUT =        2511.3848

            IN - OUT =          -0.1891              IN - OUT =      -2.8963E-03

 PERCENT DISCREPANCY =          -0.00     PERCENT DISCREPANCY =          -0.00




         TIME SUMMARY AT END OF TIME STEP    1 IN STRESS PERIOD   55
                    SECONDS     MINUTES      HOURS       DAYS        YEARS
                    -----------------------------------------------------------
   TIME STEP LENGTH  86400.      1440.0      24.000      1.0000     2.73785E-03
 STRESS PERIOD TIME  86400.      1440.0      24.000      1.0000     2.73785E-03
         TOTAL TIME 4.75200E+06  79200.      1320.0      55.000     0.15058    


end timestep


start timestep kper="56" kstp="1" mode="normal"

 #Stressperiod Save Options

 BEGIN READING OUTPUT CONTROL FOR STRESS PERIOD 56
      ALL TIME STEPS WILL BE SAVED
      ALL TIME STEPS WILL BE SAVED

 END READING OUTPUT CONTROL FOR STRESS PERIOD 56


 PROCESSING STORAGE PERIOD DATA
 END PROCESSING STORAGE PERIOD DATA


 STRESS PERIOD 56 IS TRANSIENT


 REUSING DRNS FROM LAST STRESS PERIOD

 REUSING RIVS FROM LAST STRESS PERIOD

 REUSING RIVS FROM LAST STRESS PERIOD

 REUSING RCHS FROM LAST STRESS PERIOD
 UBDSV06 SAVING              DRN IN MODEL GWF_1            PACKAGE GWF_1           CONNECTED TO MODEL GWF_1            PACKAGE DRN_SYS1         ON UNIT   1018 AT TIME STEP      1, STRESS PERIOD     56
 UBDSV06 SAVING              RIV IN MODEL GWF_1            PACKAGE GWF_1           CONNECTED TO MODEL GWF_1            PACKAGE RIV_SYS1         ON UNIT   1018 AT TIME STEP      1, STRESS PERIOD     56
 UBDSV06 SAVING              RIV IN MODEL GWF_1            PACKAGE GWF_1           CONNECTED TO MODEL GWF_1            PACKAGE RIV_SYS2         ON UNIT   1018 AT TIME STEP      1, STRESS PERIOD     56
 UBDSV06 SAVING              RCH IN MODEL GWF_1            PACKAGE GWF_1           CONNECTED TO MODEL GWF_1            PACKAGE RCH_MSW          ON UNIT   1018 AT TIME STEP      1, STRESS PERIOD     56

 HEAD WILL BE SAVED ON UNIT 1017 AT END OF TIME STEP    1, STRESS PERIOD   56


  VOLUME BUDGET FOR ENTIRE MODEL AT END OF TIME STEP    1, STRESS PERIOD  56
  ---------------------------------------------------------------------------------------------------

     CUMULATIVE VOLUME      L**3       RATES FOR THIS TIME STEP      L**3/T          PACKAGE NAME    
     ------------------                 ------------------------                     ----------------

           IN:                                      IN:
           ---                                      ---
              STO-SS =      169560.7771                STO-SS =         826.1177     STORAGE                          
                 DRN =           0.0000                   DRN =           0.0000     DRN_SYS1                         
                 RIV =       17809.2048                   RIV =         754.5754     RIV_SYS1                         
                 RIV =           0.0000                   RIV =           0.0000     RIV_SYS2                         
                 RCH =      112011.5984                   RCH =         889.8386     RCH_MSW                          

            TOTAL IN =      299381.5804              TOTAL IN =        2470.5316

          OUT:                                     OUT:
          ----                                     ----
              STO-SS =         230.1810                STO-SS =           0.0000     STORAGE                          
                 DRN =        6977.8743                   DRN =          56.0359     DRN_SYS1                         
                 RIV =      270158.2689                   RIV =        2262.2422     RIV_SYS1                         
                 RIV =       18657.6070                   RIV =         152.2562     RIV_SYS2                         
                 RCH =        3357.8410                   RCH =           0.0000     RCH_MSW                          

           TOTAL OUT =      299381.7721             TOTAL OUT =        2470.5343

            IN - OUT =          -0.1917              IN - OUT =      -2.6299E-03

 PERCENT DISCREPANCY =          -0.00     PERCENT DISCREPANCY =          -0.00




         TIME SUMMARY AT END OF TIME STEP    1 IN STRESS PERIOD   56
                    SECONDS     MINUTES      HOURS       DAYS        YEARS
                    -----------------------------------------------------------
   TIME STEP LENGTH  86400.      1440.0      24.000      1.0000     2.73785E-03
 STRESS PERIOD TIME  86400.      1440.0      24.000      1.0000     2.73785E-03
         TOTAL TIME 4.83840E+06  80640.      1344.0      56.000     0.15332    


end timestep


start timestep kper="57" kstp="1" mode="normal"

 #Stressperiod Save Options

 BEGIN READING OUTPUT CONTROL FOR STRESS PERIOD 57
      ALL TIME STEPS WILL BE SAVED
      ALL TIME STEPS WILL BE SAVED

 END READING OUTPUT CONTROL FOR STRESS PERIOD 57


 PROCESSING STORAGE PERIOD DATA
 END PROCESSING STORAGE PERIOD DATA


 STRESS PERIOD 57 IS TRANSIENT


 REUSING DRNS FROM LAST STRESS PERIOD

 REUSING RIVS FROM LAST STRESS PERIOD

 REUSING RIVS FROM LAST STRESS PERIOD

 REUSING RCHS FROM LAST STRESS PERIOD
 UBDSV06 SAVING              DRN IN MODEL GWF_1            PACKAGE GWF_1           CONNECTED TO MODEL GWF_1            PACKAGE DRN_SYS1         ON UNIT   1018 AT TIME STEP      1, STRESS PERIOD     57
 UBDSV06 SAVING              RIV IN MODEL GWF_1            PACKAGE GWF_1           CONNECTED TO MODEL GWF_1            PACKAGE RIV_SYS1         ON UNIT   1018 AT TIME STEP      1, STRESS PERIOD     57
 UBDSV06 SAVING              RIV IN MODEL GWF_1            PACKAGE GWF_1           CONNECTED TO MODEL GWF_1            PACKAGE RIV_SYS2         ON UNIT   1018 AT TIME STEP      1, STRESS PERIOD     57
 UBDSV06 SAVING              RCH IN MODEL GWF_1            PACKAGE GWF_1           CONNECTED TO MODEL GWF_1            PACKAGE RCH_MSW          ON UNIT   1018 AT TIME STEP      1, STRESS PERIOD     57

 HEAD WILL BE SAVED ON UNIT 1017 AT END OF TIME STEP    1, STRESS PERIOD   57


  VOLUME BUDGET FOR ENTIRE MODEL AT END OF TIME STEP    1, STRESS PERIOD  57
  ---------------------------------------------------------------------------------------------------

     CUMULATIVE VOLUME      L**3       RATES FOR THIS TIME STEP      L**3/T          PACKAGE NAME    
     ------------------                 ------------------------                     ----------------

           IN:                                      IN:
           ---                                      ---
              STO-SS =      170365.0311                STO-SS =         804.2539     STORAGE                          
                 DRN =           0.0000                   DRN =           0.0000     DRN_SYS1                         
                 RIV =       18577.7648                   RIV =         768.5600     RIV_SYS1                         
                 RIV =           0.0000                   RIV =           0.0000     RIV_SYS2                         
                 RCH =      112869.4605                   RCH =         857.8620     RCH_MSW                          

            TOTAL IN =      301812.2563              TOTAL IN =        2430.6760

          OUT:                                     OUT:
          ----                                     ----
              STO-SS =         230.1810                STO-SS =           0.0000     STORAGE                          
                 DRN =        7032.5534                   DRN =          54.6791     DRN_SYS1                         
                 RIV =      272385.3418                   RIV =        2227.0729     RIV_SYS1                         
                 RIV =       18806.5323                   RIV =         148.9253     RIV_SYS2                         
                 RCH =        3357.8410                   RCH =           0.0000     RCH_MSW                          

           TOTAL OUT =      301812.4494             TOTAL OUT =        2430.6773

            IN - OUT =          -0.1931              IN - OUT =      -1.3520E-03

 PERCENT DISCREPANCY =          -0.00     PERCENT DISCREPANCY =          -0.00




         TIME SUMMARY AT END OF TIME STEP    1 IN STRESS PERIOD   57
                    SECONDS     MINUTES      HOURS       DAYS        YEARS
                    -----------------------------------------------------------
   TIME STEP LENGTH  86400.      1440.0      24.000      1.0000     2.73785E-03
 STRESS PERIOD TIME  86400.      1440.0      24.000      1.0000     2.73785E-03
         TOTAL TIME 4.92480E+06  82080.      1368.0      57.000     0.15606    


end timestep


start timestep kper="58" kstp="1" mode="normal"

 #Stressperiod Save Options

 BEGIN READING OUTPUT CONTROL FOR STRESS PERIOD 58
      ALL TIME STEPS WILL BE SAVED
      ALL TIME STEPS WILL BE SAVED

 END READING OUTPUT CONTROL FOR STRESS PERIOD 58


 PROCESSING STORAGE PERIOD DATA
 END PROCESSING STORAGE PERIOD DATA


 STRESS PERIOD 58 IS TRANSIENT


 REUSING DRNS FROM LAST STRESS PERIOD

 REUSING RIVS FROM LAST STRESS PERIOD

 REUSING RIVS FROM LAST STRESS PERIOD

 REUSING RCHS FROM LAST STRESS PERIOD
 UBDSV06 SAVING              DRN IN MODEL GWF_1            PACKAGE GWF_1           CONNECTED TO MODEL GWF_1            PACKAGE DRN_SYS1         ON UNIT   1018 AT TIME STEP      1, STRESS PERIOD     58
 UBDSV06 SAVING              RIV IN MODEL GWF_1            PACKAGE GWF_1           CONNECTED TO MODEL GWF_1            PACKAGE RIV_SYS1         ON UNIT   1018 AT TIME STEP      1, STRESS PERIOD     58
 UBDSV06 SAVING              RIV IN MODEL GWF_1            PACKAGE GWF_1           CONNECTED TO MODEL GWF_1            PACKAGE RIV_SYS2         ON UNIT   1018 AT TIME STEP      1, STRESS PERIOD     58
 UBDSV06 SAVING              RCH IN MODEL GWF_1            PACKAGE GWF_1           CONNECTED TO MODEL GWF_1            PACKAGE RCH_MSW          ON UNIT   1018 AT TIME STEP      1, STRESS PERIOD     58

 HEAD WILL BE SAVED ON UNIT 1017 AT END OF TIME STEP    1, STRESS PERIOD   58


  VOLUME BUDGET FOR ENTIRE MODEL AT END OF TIME STEP    1, STRESS PERIOD  58
  ---------------------------------------------------------------------------------------------------

     CUMULATIVE VOLUME      L**3       RATES FOR THIS TIME STEP      L**3/T          PACKAGE NAME    
     ------------------                 ------------------------                     ----------------

           IN:                                      IN:
           ---                                      ---
              STO-SS =      171127.1457                STO-SS =         762.1146     STORAGE                          
                 DRN =           0.0000                   DRN =           0.0000     DRN_SYS1                         
                 RIV =       19358.8029                   RIV =         781.0380     RIV_SYS1                         
                 RIV =           0.0000                   RIV =           0.0000     RIV_SYS2                         
                 RCH =      113721.9452                   RCH =         852.4848     RCH_MSW                          

            TOTAL IN =      304207.8937              TOTAL IN =        2395.6374

          OUT:                                     OUT:
          ----                                     ----
              STO-SS =         230.1810                STO-SS =           0.0000     STORAGE                          
                 DRN =        7085.9377                   DRN =          53.3843     DRN_SYS1                         
                 RIV =      274581.8413                   RIV =        2196.4995     RIV_SYS1                         
                 RIV =       18952.2874                   RIV =         145.7551     RIV_SYS2                         
                 RCH =        3357.8410                   RCH =           0.0000     RCH_MSW                          

           TOTAL OUT =      304208.0884             TOTAL OUT =        2395.6390

            IN - OUT =          -0.1946              IN - OUT =      -1.5830E-03

 PERCENT DISCREPANCY =          -0.00     PERCENT DISCREPANCY =          -0.00




         TIME SUMMARY AT END OF TIME STEP    1 IN STRESS PERIOD   58
                    SECONDS     MINUTES      HOURS       DAYS        YEARS
                    -----------------------------------------------------------
   TIME STEP LENGTH  86400.      1440.0      24.000      1.0000     2.73785E-03
 STRESS PERIOD TIME  86400.      1440.0      24.000      1.0000     2.73785E-03
         TOTAL TIME 5.01120E+06  83520.      1392.0      58.000     0.15880    


end timestep


start timestep kper="59" kstp="1" mode="normal"

 #Stressperiod Save Options

 BEGIN READING OUTPUT CONTROL FOR STRESS PERIOD 59
      ALL TIME STEPS WILL BE SAVED
      ALL TIME STEPS WILL BE SAVED

 END READING OUTPUT CONTROL FOR STRESS PERIOD 59


 PROCESSING STORAGE PERIOD DATA
 END PROCESSING STORAGE PERIOD DATA


 STRESS PERIOD 59 IS TRANSIENT


 REUSING DRNS FROM LAST STRESS PERIOD

 REUSING RIVS FROM LAST STRESS PERIOD

 REUSING RIVS FROM LAST STRESS PERIOD

 REUSING RCHS FROM LAST STRESS PERIOD
 UBDSV06 SAVING              DRN IN MODEL GWF_1            PACKAGE GWF_1           CONNECTED TO MODEL GWF_1            PACKAGE DRN_SYS1         ON UNIT   1018 AT TIME STEP      1, STRESS PERIOD     59
 UBDSV06 SAVING              RIV IN MODEL GWF_1            PACKAGE GWF_1           CONNECTED TO MODEL GWF_1            PACKAGE RIV_SYS1         ON UNIT   1018 AT TIME STEP      1, STRESS PERIOD     59
 UBDSV06 SAVING              RIV IN MODEL GWF_1            PACKAGE GWF_1           CONNECTED TO MODEL GWF_1            PACKAGE RIV_SYS2         ON UNIT   1018 AT TIME STEP      1, STRESS PERIOD     59
 UBDSV06 SAVING              RCH IN MODEL GWF_1            PACKAGE GWF_1           CONNECTED TO MODEL GWF_1            PACKAGE RCH_MSW          ON UNIT   1018 AT TIME STEP      1, STRESS PERIOD     59

 HEAD WILL BE SAVED ON UNIT 1017 AT END OF TIME STEP    1, STRESS PERIOD   59


  VOLUME BUDGET FOR ENTIRE MODEL AT END OF TIME STEP    1, STRESS PERIOD  59
  ---------------------------------------------------------------------------------------------------

     CUMULATIVE VOLUME      L**3       RATES FOR THIS TIME STEP      L**3/T          PACKAGE NAME    
     ------------------                 ------------------------                     ----------------

           IN:                                      IN:
           ---                                      ---
              STO-SS =      171859.5624                STO-SS =         732.4168     STORAGE                          
                 DRN =           0.0000                   DRN =           0.0000     DRN_SYS1                         
                 RIV =       20151.7152                   RIV =         792.9123     RIV_SYS1                         
                 RIV =           0.0000                   RIV =           0.0000     RIV_SYS2                         
                 RCH =      114558.3169                   RCH =         836.3717     RCH_MSW                          

            TOTAL IN =      306569.5945              TOTAL IN =        2361.7008

          OUT:                                     OUT:
          ----                                     ----
              STO-SS =         230.1810                STO-SS =           0.0000     STORAGE                          
                 DRN =        7138.0776                   DRN =          52.1399     DRN_SYS1                         
                 RIV =      276748.6785                   RIV =        2166.8373     RIV_SYS1                         
                 RIV =       19095.0127                   RIV =         142.7253     RIV_SYS2                         
                 RCH =        3357.8410                   RCH =           0.0000     RCH_MSW                          

           TOTAL OUT =      306569.7908             TOTAL OUT =        2361.7024

            IN - OUT =          -0.1963              IN - OUT =      -1.6082E-03

 PERCENT DISCREPANCY =          -0.00     PERCENT DISCREPANCY =          -0.00




         TIME SUMMARY AT END OF TIME STEP    1 IN STRESS PERIOD   59
                    SECONDS     MINUTES      HOURS       DAYS        YEARS
                    -----------------------------------------------------------
   TIME STEP LENGTH  86400.      1440.0      24.000      1.0000     2.73785E-03
 STRESS PERIOD TIME  86400.      1440.0      24.000      1.0000     2.73785E-03
         TOTAL TIME 5.09760E+06  84960.      1416.0      59.000     0.16153    


end timestep


start timestep kper="60" kstp="1" mode="normal"

 #Stressperiod Save Options

 BEGIN READING OUTPUT CONTROL FOR STRESS PERIOD 60
      ALL TIME STEPS WILL BE SAVED
      ALL TIME STEPS WILL BE SAVED

 END READING OUTPUT CONTROL FOR STRESS PERIOD 60


 PROCESSING STORAGE PERIOD DATA
 END PROCESSING STORAGE PERIOD DATA


 STRESS PERIOD 60 IS TRANSIENT


 REUSING DRNS FROM LAST STRESS PERIOD

 REUSING RIVS FROM LAST STRESS PERIOD

 REUSING RIVS FROM LAST STRESS PERIOD

 REUSING RCHS FROM LAST STRESS PERIOD
 UBDSV06 SAVING              DRN IN MODEL GWF_1            PACKAGE GWF_1           CONNECTED TO MODEL GWF_1            PACKAGE DRN_SYS1         ON UNIT   1018 AT TIME STEP      1, STRESS PERIOD     60
 UBDSV06 SAVING              RIV IN MODEL GWF_1            PACKAGE GWF_1           CONNECTED TO MODEL GWF_1            PACKAGE RIV_SYS1         ON UNIT   1018 AT TIME STEP      1, STRESS PERIOD     60
 UBDSV06 SAVING              RIV IN MODEL GWF_1            PACKAGE GWF_1           CONNECTED TO MODEL GWF_1            PACKAGE RIV_SYS2         ON UNIT   1018 AT TIME STEP      1, STRESS PERIOD     60
 UBDSV06 SAVING              RCH IN MODEL GWF_1            PACKAGE GWF_1           CONNECTED TO MODEL GWF_1            PACKAGE RCH_MSW          ON UNIT   1018 AT TIME STEP      1, STRESS PERIOD     60

 HEAD WILL BE SAVED ON UNIT 1017 AT END OF TIME STEP    1, STRESS PERIOD   60


  VOLUME BUDGET FOR ENTIRE MODEL AT END OF TIME STEP    1, STRESS PERIOD  60
  ---------------------------------------------------------------------------------------------------

     CUMULATIVE VOLUME      L**3       RATES FOR THIS TIME STEP      L**3/T          PACKAGE NAME    
     ------------------                 ------------------------                     ----------------

           IN:                                      IN:
           ---                                      ---
              STO-SS =      172560.0396                STO-SS =         700.4772     STORAGE                          
                 DRN =           0.0000                   DRN =           0.0000     DRN_SYS1                         
                 RIV =       20955.7220                   RIV =         804.0068     RIV_SYS1                         
                 RIV =           0.0000                   RIV =           0.0000     RIV_SYS2                         
                 RCH =      115383.3399                   RCH =         825.0229     RCH_MSW                          

            TOTAL IN =      308899.1015              TOTAL IN =        2329.5070

          OUT:                                     OUT:
          ----                                     ----
              STO-SS =         230.1810                STO-SS =           0.0000     STORAGE                          
                 DRN =        7189.0216                   DRN =          50.9440     DRN_SYS1                         
                 RIV =      278887.4183                   RIV =        2138.7398     RIV_SYS1                         
                 RIV =       19234.8379                   RIV =         139.8252     RIV_SYS2                         
                 RCH =        3357.8410                   RCH =           0.0000     RCH_MSW                          

           TOTAL OUT =      308899.2998             TOTAL OUT =        2329.5090

            IN - OUT =          -0.1983              IN - OUT =      -2.0151E-03

 PERCENT DISCREPANCY =          -0.00     PERCENT DISCREPANCY =          -0.00




         TIME SUMMARY AT END OF TIME STEP    1 IN STRESS PERIOD   60
                    SECONDS     MINUTES      HOURS       DAYS        YEARS
                    -----------------------------------------------------------
   TIME STEP LENGTH  86400.      1440.0      24.000      1.0000     2.73785E-03
 STRESS PERIOD TIME  86400.      1440.0      24.000      1.0000     2.73785E-03
         TOTAL TIME 5.18400E+06  86400.      1440.0      60.000     0.16427    


end timestep


start timestep kper="61" kstp="1" mode="normal"

 #Stressperiod Save Options

 BEGIN READING OUTPUT CONTROL FOR STRESS PERIOD 61
      ALL TIME STEPS WILL BE SAVED
      ALL TIME STEPS WILL BE SAVED

 END READING OUTPUT CONTROL FOR STRESS PERIOD 61


 PROCESSING STORAGE PERIOD DATA
 END PROCESSING STORAGE PERIOD DATA


 STRESS PERIOD 61 IS TRANSIENT


 REUSING DRNS FROM LAST STRESS PERIOD

 REUSING RIVS FROM LAST STRESS PERIOD

 REUSING RIVS FROM LAST STRESS PERIOD

 REUSING RCHS FROM LAST STRESS PERIOD
 UBDSV06 SAVING              DRN IN MODEL GWF_1            PACKAGE GWF_1           CONNECTED TO MODEL GWF_1            PACKAGE DRN_SYS1         ON UNIT   1018 AT TIME STEP      1, STRESS PERIOD     61
 UBDSV06 SAVING              RIV IN MODEL GWF_1            PACKAGE GWF_1           CONNECTED TO MODEL GWF_1            PACKAGE RIV_SYS1         ON UNIT   1018 AT TIME STEP      1, STRESS PERIOD     61
 UBDSV06 SAVING              RIV IN MODEL GWF_1            PACKAGE GWF_1           CONNECTED TO MODEL GWF_1            PACKAGE RIV_SYS2         ON UNIT   1018 AT TIME STEP      1, STRESS PERIOD     61
 UBDSV06 SAVING              RCH IN MODEL GWF_1            PACKAGE GWF_1           CONNECTED TO MODEL GWF_1            PACKAGE RCH_MSW          ON UNIT   1018 AT TIME STEP      1, STRESS PERIOD     61

 HEAD WILL BE SAVED ON UNIT 1017 AT END OF TIME STEP    1, STRESS PERIOD   61


  VOLUME BUDGET FOR ENTIRE MODEL AT END OF TIME STEP    1, STRESS PERIOD  61
  ---------------------------------------------------------------------------------------------------

     CUMULATIVE VOLUME      L**3       RATES FOR THIS TIME STEP      L**3/T          PACKAGE NAME    
     ------------------                 ------------------------                     ----------------

           IN:                                      IN:
           ---                                      ---
              STO-SS =      173219.3349                STO-SS =         659.2953     STORAGE                          
                 DRN =           0.0000                   DRN =           0.0000     DRN_SYS1                         
                 RIV =       21769.5905                   RIV =         813.8685     RIV_SYS1                         
                 RIV =           0.0000                   RIV =           0.0000     RIV_SYS2                         
                 RCH =      116210.4144                   RCH =         827.0745     RCH_MSW                          

            TOTAL IN =      311199.3398              TOTAL IN =        2300.2383

          OUT:                                     OUT:
          ----                                     ----
              STO-SS =         230.1810                STO-SS =           0.0000     STORAGE                          
                 DRN =        7238.8244                   DRN =          49.8028     DRN_SYS1                         
                 RIV =      281000.7755                   RIV =        2113.3572     RIV_SYS1                         
                 RIV =       19371.9188                   RIV =         137.0809     RIV_SYS2                         
                 RCH =        3357.8410                   RCH =           0.0000     RCH_MSW                          

           TOTAL OUT =      311199.5406             TOTAL OUT =        2300.2409

            IN - OUT =          -0.2008              IN - OUT =      -2.5631E-03

 PERCENT DISCREPANCY =          -0.00     PERCENT DISCREPANCY =          -0.00




         TIME SUMMARY AT END OF TIME STEP    1 IN STRESS PERIOD   61
                    SECONDS     MINUTES      HOURS       DAYS        YEARS
                    -----------------------------------------------------------
   TIME STEP LENGTH  86400.      1440.0      24.000      1.0000     2.73785E-03
 STRESS PERIOD TIME  86400.      1440.0      24.000      1.0000     2.73785E-03
         TOTAL TIME 5.27040E+06  87840.      1464.0      61.000     0.16701    


end timestep


start timestep kper="62" kstp="1" mode="normal"

 #Stressperiod Save Options

 BEGIN READING OUTPUT CONTROL FOR STRESS PERIOD 62
      ALL TIME STEPS WILL BE SAVED
      ALL TIME STEPS WILL BE SAVED

 END READING OUTPUT CONTROL FOR STRESS PERIOD 62


 PROCESSING STORAGE PERIOD DATA
 END PROCESSING STORAGE PERIOD DATA


 STRESS PERIOD 62 IS TRANSIENT


 REUSING DRNS FROM LAST STRESS PERIOD

 REUSING RIVS FROM LAST STRESS PERIOD

 REUSING RIVS FROM LAST STRESS PERIOD

 REUSING RCHS FROM LAST STRESS PERIOD
 UBDSV06 SAVING              DRN IN MODEL GWF_1            PACKAGE GWF_1           CONNECTED TO MODEL GWF_1            PACKAGE DRN_SYS1         ON UNIT   1018 AT TIME STEP      1, STRESS PERIOD     62
 UBDSV06 SAVING              RIV IN MODEL GWF_1            PACKAGE GWF_1           CONNECTED TO MODEL GWF_1            PACKAGE RIV_SYS1         ON UNIT   1018 AT TIME STEP      1, STRESS PERIOD     62
 UBDSV06 SAVING              RIV IN MODEL GWF_1            PACKAGE GWF_1           CONNECTED TO MODEL GWF_1            PACKAGE RIV_SYS2         ON UNIT   1018 AT TIME STEP      1, STRESS PERIOD     62
 UBDSV06 SAVING              RCH IN MODEL GWF_1            PACKAGE GWF_1           CONNECTED TO MODEL GWF_1            PACKAGE RCH_MSW          ON UNIT   1018 AT TIME STEP      1, STRESS PERIOD     62

 HEAD WILL BE SAVED ON UNIT 1017 AT END OF TIME STEP    1, STRESS PERIOD   62


  VOLUME BUDGET FOR ENTIRE MODEL AT END OF TIME STEP    1, STRESS PERIOD  62
  ---------------------------------------------------------------------------------------------------

     CUMULATIVE VOLUME      L**3       RATES FOR THIS TIME STEP      L**3/T          PACKAGE NAME    
     ------------------                 ------------------------                     ----------------

           IN:                                      IN:
           ---                                      ---
              STO-SS =      173807.9419                STO-SS =         588.6070     STORAGE                          
                 DRN =           0.0000                   DRN =           0.0000     DRN_SYS1                         
                 RIV =       22590.6040                   RIV =         821.0135     RIV_SYS1                         
                 RIV =           0.0000                   RIV =           0.0000     RIV_SYS2                         
                 RCH =      117078.4499                   RCH =         868.0355     RCH_MSW                          

            TOTAL IN =      313476.9958              TOTAL IN =        2277.6560

          OUT:                                     OUT:
          ----                                     ----
              STO-SS =         230.2971                STO-SS =           0.1161     STORAGE                          
                 DRN =        7287.5708                   DRN =          48.7464     DRN_SYS1                         
                 RIV =      283095.0005                   RIV =        2094.2250     RIV_SYS1                         
                 RIV =       19506.4919                   RIV =         134.5731     RIV_SYS2                         
                 RCH =        3357.8410                   RCH =           0.0000     RCH_MSW                          

           TOTAL OUT =      313477.2012             TOTAL OUT =        2277.6606

            IN - OUT =          -0.2054              IN - OUT =      -4.5645E-03

 PERCENT DISCREPANCY =          -0.00     PERCENT DISCREPANCY =          -0.00




         TIME SUMMARY AT END OF TIME STEP    1 IN STRESS PERIOD   62
                    SECONDS     MINUTES      HOURS       DAYS        YEARS
                    -----------------------------------------------------------
   TIME STEP LENGTH  86400.      1440.0      24.000      1.0000     2.73785E-03
 STRESS PERIOD TIME  86400.      1440.0      24.000      1.0000     2.73785E-03
         TOTAL TIME 5.35680E+06  89280.      1488.0      62.000     0.16975    


end timestep


start timestep kper="63" kstp="1" mode="normal"

 #Stressperiod Save Options

 BEGIN READING OUTPUT CONTROL FOR STRESS PERIOD 63
      ALL TIME STEPS WILL BE SAVED
      ALL TIME STEPS WILL BE SAVED

 END READING OUTPUT CONTROL FOR STRESS PERIOD 63


 PROCESSING STORAGE PERIOD DATA
 END PROCESSING STORAGE PERIOD DATA


 STRESS PERIOD 63 IS TRANSIENT


 REUSING DRNS FROM LAST STRESS PERIOD

 REUSING RIVS FROM LAST STRESS PERIOD

 REUSING RIVS FROM LAST STRESS PERIOD

 REUSING RCHS FROM LAST STRESS PERIOD
 UBDSV06 SAVING              DRN IN MODEL GWF_1            PACKAGE GWF_1           CONNECTED TO MODEL GWF_1            PACKAGE DRN_SYS1         ON UNIT   1018 AT TIME STEP      1, STRESS PERIOD     63
 UBDSV06 SAVING              RIV IN MODEL GWF_1            PACKAGE GWF_1           CONNECTED TO MODEL GWF_1            PACKAGE RIV_SYS1         ON UNIT   1018 AT TIME STEP      1, STRESS PERIOD     63
 UBDSV06 SAVING              RIV IN MODEL GWF_1            PACKAGE GWF_1           CONNECTED TO MODEL GWF_1            PACKAGE RIV_SYS2         ON UNIT   1018 AT TIME STEP      1, STRESS PERIOD     63
 UBDSV06 SAVING              RCH IN MODEL GWF_1            PACKAGE GWF_1           CONNECTED TO MODEL GWF_1            PACKAGE RCH_MSW          ON UNIT   1018 AT TIME STEP      1, STRESS PERIOD     63

 HEAD WILL BE SAVED ON UNIT 1017 AT END OF TIME STEP    1, STRESS PERIOD   63


  VOLUME BUDGET FOR ENTIRE MODEL AT END OF TIME STEP    1, STRESS PERIOD  63
  ---------------------------------------------------------------------------------------------------

     CUMULATIVE VOLUME      L**3       RATES FOR THIS TIME STEP      L**3/T          PACKAGE NAME    
     ------------------                 ------------------------                     ----------------

           IN:                                      IN:
           ---                                      ---
              STO-SS =      174335.9451                STO-SS =         528.0032     STORAGE                          
                 DRN =           0.0000                   DRN =           0.0000     DRN_SYS1                         
                 RIV =       23417.3403                   RIV =         826.7362     RIV_SYS1                         
                 RIV =           0.0000                   RIV =           0.0000     RIV_SYS2                         
                 RCH =      117982.2413                   RCH =         903.7914     RCH_MSW                          

            TOTAL IN =      315735.5267              TOTAL IN =        2258.5309

          OUT:                                     OUT:
          ----                                     ----
              STO-SS =         230.5251                STO-SS =           0.2280     STORAGE                          
                 DRN =        7335.3488                   DRN =          47.7780     DRN_SYS1                         
                 RIV =      285173.2221                   RIV =        2078.2215     RIV_SYS1                         
                 RIV =       19638.7994                   RIV =         132.3075     RIV_SYS2                         
                 RCH =        3357.8410                   RCH =           0.0000     RCH_MSW                          

           TOTAL OUT =      315735.7363             TOTAL OUT =        2258.5350

            IN - OUT =          -0.2096              IN - OUT =      -4.1682E-03

 PERCENT DISCREPANCY =          -0.00     PERCENT DISCREPANCY =          -0.00




         TIME SUMMARY AT END OF TIME STEP    1 IN STRESS PERIOD   63
                    SECONDS     MINUTES      HOURS       DAYS        YEARS
                    -----------------------------------------------------------
   TIME STEP LENGTH  86400.      1440.0      24.000      1.0000     2.73785E-03
 STRESS PERIOD TIME  86400.      1440.0      24.000      1.0000     2.73785E-03
         TOTAL TIME 5.44320E+06  90720.      1512.0      63.000     0.17248    


end timestep


start timestep kper="64" kstp="1" mode="normal"

 #Stressperiod Save Options

 BEGIN READING OUTPUT CONTROL FOR STRESS PERIOD 64
      ALL TIME STEPS WILL BE SAVED
      ALL TIME STEPS WILL BE SAVED

 END READING OUTPUT CONTROL FOR STRESS PERIOD 64


 PROCESSING STORAGE PERIOD DATA
 END PROCESSING STORAGE PERIOD DATA


 STRESS PERIOD 64 IS TRANSIENT


 REUSING DRNS FROM LAST STRESS PERIOD

 REUSING RIVS FROM LAST STRESS PERIOD

 REUSING RIVS FROM LAST STRESS PERIOD

 REUSING RCHS FROM LAST STRESS PERIOD
 UBDSV06 SAVING              DRN IN MODEL GWF_1            PACKAGE GWF_1           CONNECTED TO MODEL GWF_1            PACKAGE DRN_SYS1         ON UNIT   1018 AT TIME STEP      1, STRESS PERIOD     64
 UBDSV06 SAVING              RIV IN MODEL GWF_1            PACKAGE GWF_1           CONNECTED TO MODEL GWF_1            PACKAGE RIV_SYS1         ON UNIT   1018 AT TIME STEP      1, STRESS PERIOD     64
 UBDSV06 SAVING              RIV IN MODEL GWF_1            PACKAGE GWF_1           CONNECTED TO MODEL GWF_1            PACKAGE RIV_SYS2         ON UNIT   1018 AT TIME STEP      1, STRESS PERIOD     64
 UBDSV06 SAVING              RCH IN MODEL GWF_1            PACKAGE GWF_1           CONNECTED TO MODEL GWF_1            PACKAGE RCH_MSW          ON UNIT   1018 AT TIME STEP      1, STRESS PERIOD     64

 HEAD WILL BE SAVED ON UNIT 1017 AT END OF TIME STEP    1, STRESS PERIOD   64


  VOLUME BUDGET FOR ENTIRE MODEL AT END OF TIME STEP    1, STRESS PERIOD  64
  ---------------------------------------------------------------------------------------------------

     CUMULATIVE VOLUME      L**3       RATES FOR THIS TIME STEP      L**3/T          PACKAGE NAME    
     ------------------                 ------------------------                     ----------------

           IN:                                      IN:
           ---                                      ---
              STO-SS =      174825.0531                STO-SS =         489.1080     STORAGE                          
                 DRN =           0.0000                   DRN =           0.0000     DRN_SYS1                         
                 RIV =       24249.0702                   RIV =         831.7299     RIV_SYS1                         
                 RIV =           0.0000                   RIV =           0.0000     RIV_SYS2                         
                 RCH =      118901.8899                   RCH =         919.6486     RCH_MSW                          

            TOTAL IN =      317976.0132              TOTAL IN =        2240.4865

          OUT:                                     OUT:
          ----                                     ----
              STO-SS =         230.7434                STO-SS =           0.2183     STORAGE                          
                 DRN =        7382.2275                   DRN =          46.8788     DRN_SYS1                         
                 RIV =      287236.3867                   RIV =        2063.1647     RIV_SYS1                         
                 RIV =       19769.0262                   RIV =         130.2269     RIV_SYS2                         
                 RCH =        3357.8410                   RCH =           0.0000     RCH_MSW                          

           TOTAL OUT =      317976.2249             TOTAL OUT =        2240.4886

            IN - OUT =          -0.2117              IN - OUT =      -2.1088E-03

 PERCENT DISCREPANCY =          -0.00     PERCENT DISCREPANCY =          -0.00




         TIME SUMMARY AT END OF TIME STEP    1 IN STRESS PERIOD   64
                    SECONDS     MINUTES      HOURS       DAYS        YEARS
                    -----------------------------------------------------------
   TIME STEP LENGTH  86400.      1440.0      24.000      1.0000     2.73785E-03
 STRESS PERIOD TIME  86400.      1440.0      24.000      1.0000     2.73785E-03
         TOTAL TIME 5.52960E+06  92160.      1536.0      64.000     0.17522    


end timestep


start timestep kper="65" kstp="1" mode="normal"

 #Stressperiod Save Options

 BEGIN READING OUTPUT CONTROL FOR STRESS PERIOD 65
      ALL TIME STEPS WILL BE SAVED
      ALL TIME STEPS WILL BE SAVED

 END READING OUTPUT CONTROL FOR STRESS PERIOD 65


 PROCESSING STORAGE PERIOD DATA
 END PROCESSING STORAGE PERIOD DATA


 STRESS PERIOD 65 IS TRANSIENT


 REUSING DRNS FROM LAST STRESS PERIOD

 REUSING RIVS FROM LAST STRESS PERIOD

 REUSING RIVS FROM LAST STRESS PERIOD

 REUSING RCHS FROM LAST STRESS PERIOD
 UBDSV06 SAVING              DRN IN MODEL GWF_1            PACKAGE GWF_1           CONNECTED TO MODEL GWF_1            PACKAGE DRN_SYS1         ON UNIT   1018 AT TIME STEP      1, STRESS PERIOD     65
 UBDSV06 SAVING              RIV IN MODEL GWF_1            PACKAGE GWF_1           CONNECTED TO MODEL GWF_1            PACKAGE RIV_SYS1         ON UNIT   1018 AT TIME STEP      1, STRESS PERIOD     65
 UBDSV06 SAVING              RIV IN MODEL GWF_1            PACKAGE GWF_1           CONNECTED TO MODEL GWF_1            PACKAGE RIV_SYS2         ON UNIT   1018 AT TIME STEP      1, STRESS PERIOD     65
 UBDSV06 SAVING              RCH IN MODEL GWF_1            PACKAGE GWF_1           CONNECTED TO MODEL GWF_1            PACKAGE RCH_MSW          ON UNIT   1018 AT TIME STEP      1, STRESS PERIOD     65

 HEAD WILL BE SAVED ON UNIT 1017 AT END OF TIME STEP    1, STRESS PERIOD   65


  VOLUME BUDGET FOR ENTIRE MODEL AT END OF TIME STEP    1, STRESS PERIOD  65
  ---------------------------------------------------------------------------------------------------

     CUMULATIVE VOLUME      L**3       RATES FOR THIS TIME STEP      L**3/T          PACKAGE NAME    
     ------------------                 ------------------------                     ----------------

           IN:                                      IN:
           ---                                      ---
              STO-SS =      175280.6254                STO-SS =         455.5724     STORAGE                          
                 DRN =           0.0000                   DRN =           0.0000     DRN_SYS1                         
                 RIV =       25085.6602                   RIV =         836.5900     RIV_SYS1                         
                 RIV =           0.0000                   RIV =           0.0000     RIV_SYS2                         
                 RCH =      119832.7622                   RCH =         930.8723     RCH_MSW                          

            TOTAL IN =      320199.0479              TOTAL IN =        2223.0347

          OUT:                                     OUT:
          ----                                     ----
              STO-SS =         230.7960                STO-SS =       5.2581E-02     STORAGE                          
                 DRN =        7428.2677                   DRN =          46.0402     DRN_SYS1                         
                 RIV =      289285.0352                   RIV =        2048.6485     RIV_SYS1                         
                 RIV =       19897.3233                   RIV =         128.2971     RIV_SYS2                         
                 RCH =        3357.8410                   RCH =           0.0000     RCH_MSW                          

           TOTAL OUT =      320199.2632             TOTAL OUT =        2223.0383

            IN - OUT =          -0.2153              IN - OUT =      -3.6351E-03

 PERCENT DISCREPANCY =          -0.00     PERCENT DISCREPANCY =          -0.00




         TIME SUMMARY AT END OF TIME STEP    1 IN STRESS PERIOD   65
                    SECONDS     MINUTES      HOURS       DAYS        YEARS
                    -----------------------------------------------------------
   TIME STEP LENGTH  86400.      1440.0      24.000      1.0000     2.73785E-03
 STRESS PERIOD TIME  86400.      1440.0      24.000      1.0000     2.73785E-03
         TOTAL TIME 5.61600E+06  93600.      1560.0      65.000     0.17796    


end timestep


start timestep kper="66" kstp="1" mode="normal"

 #Stressperiod Save Options

 BEGIN READING OUTPUT CONTROL FOR STRESS PERIOD 66
      ALL TIME STEPS WILL BE SAVED
      ALL TIME STEPS WILL BE SAVED

 END READING OUTPUT CONTROL FOR STRESS PERIOD 66


 PROCESSING STORAGE PERIOD DATA
 END PROCESSING STORAGE PERIOD DATA


 STRESS PERIOD 66 IS TRANSIENT


 REUSING DRNS FROM LAST STRESS PERIOD

 REUSING RIVS FROM LAST STRESS PERIOD

 REUSING RIVS FROM LAST STRESS PERIOD

 REUSING RCHS FROM LAST STRESS PERIOD
 UBDSV06 SAVING              DRN IN MODEL GWF_1            PACKAGE GWF_1           CONNECTED TO MODEL GWF_1            PACKAGE DRN_SYS1         ON UNIT   1018 AT TIME STEP      1, STRESS PERIOD     66
 UBDSV06 SAVING              RIV IN MODEL GWF_1            PACKAGE GWF_1           CONNECTED TO MODEL GWF_1            PACKAGE RIV_SYS1         ON UNIT   1018 AT TIME STEP      1, STRESS PERIOD     66
 UBDSV06 SAVING              RIV IN MODEL GWF_1            PACKAGE GWF_1           CONNECTED TO MODEL GWF_1            PACKAGE RIV_SYS2         ON UNIT   1018 AT TIME STEP      1, STRESS PERIOD     66
 UBDSV06 SAVING              RCH IN MODEL GWF_1            PACKAGE GWF_1           CONNECTED TO MODEL GWF_1            PACKAGE RCH_MSW          ON UNIT   1018 AT TIME STEP      1, STRESS PERIOD     66

 HEAD WILL BE SAVED ON UNIT 1017 AT END OF TIME STEP    1, STRESS PERIOD   66


  VOLUME BUDGET FOR ENTIRE MODEL AT END OF TIME STEP    1, STRESS PERIOD  66
  ---------------------------------------------------------------------------------------------------

     CUMULATIVE VOLUME      L**3       RATES FOR THIS TIME STEP      L**3/T          PACKAGE NAME    
     ------------------                 ------------------------                     ----------------

           IN:                                      IN:
           ---                                      ---
              STO-SS =      175709.0710                STO-SS =         428.4456     STORAGE                          
                 DRN =           0.0000                   DRN =           0.0000     DRN_SYS1                         
                 RIV =       25927.0318                   RIV =         841.3716     RIV_SYS1                         
                 RIV =           0.0000                   RIV =           0.0000     RIV_SYS2                         
                 RCH =      120769.1239                   RCH =         936.3617     RCH_MSW                          

            TOTAL IN =      322405.2268              TOTAL IN =        2206.1789

          OUT:                                     OUT:
          ----                                     ----
              STO-SS =         230.7960                STO-SS =           0.0000     STORAGE                          
                 DRN =        7473.5202                   DRN =          45.2525     DRN_SYS1                         
                 RIV =      291319.4747                   RIV =        2034.4394     RIV_SYS1                         
                 RIV =       20023.8150                   RIV =         126.4917     RIV_SYS2                         
                 RCH =        3357.8410                   RCH =           0.0000     RCH_MSW                          

           TOTAL OUT =      322405.4469             TOTAL OUT =        2206.1837

            IN - OUT =          -0.2201              IN - OUT =      -4.7961E-03

 PERCENT DISCREPANCY =          -0.00     PERCENT DISCREPANCY =          -0.00




         TIME SUMMARY AT END OF TIME STEP    1 IN STRESS PERIOD   66
                    SECONDS     MINUTES      HOURS       DAYS        YEARS
                    -----------------------------------------------------------
   TIME STEP LENGTH  86400.      1440.0      24.000      1.0000     2.73785E-03
 STRESS PERIOD TIME  86400.      1440.0      24.000      1.0000     2.73785E-03
         TOTAL TIME 5.70240E+06  95040.      1584.0      66.000     0.18070    


end timestep


start timestep kper="67" kstp="1" mode="normal"

 #Stressperiod Save Options

 BEGIN READING OUTPUT CONTROL FOR STRESS PERIOD 67
      ALL TIME STEPS WILL BE SAVED
      ALL TIME STEPS WILL BE SAVED

 END READING OUTPUT CONTROL FOR STRESS PERIOD 67


 PROCESSING STORAGE PERIOD DATA
 END PROCESSING STORAGE PERIOD DATA


 STRESS PERIOD 67 IS TRANSIENT


 REUSING DRNS FROM LAST STRESS PERIOD

 REUSING RIVS FROM LAST STRESS PERIOD

 REUSING RIVS FROM LAST STRESS PERIOD

 REUSING RCHS FROM LAST STRESS PERIOD
 UBDSV06 SAVING              DRN IN MODEL GWF_1            PACKAGE GWF_1           CONNECTED TO MODEL GWF_1            PACKAGE DRN_SYS1         ON UNIT   1018 AT TIME STEP      1, STRESS PERIOD     67
 UBDSV06 SAVING              RIV IN MODEL GWF_1            PACKAGE GWF_1           CONNECTED TO MODEL GWF_1            PACKAGE RIV_SYS1         ON UNIT   1018 AT TIME STEP      1, STRESS PERIOD     67
 UBDSV06 SAVING              RIV IN MODEL GWF_1            PACKAGE GWF_1           CONNECTED TO MODEL GWF_1            PACKAGE RIV_SYS2         ON UNIT   1018 AT TIME STEP      1, STRESS PERIOD     67
 UBDSV06 SAVING              RCH IN MODEL GWF_1            PACKAGE GWF_1           CONNECTED TO MODEL GWF_1            PACKAGE RCH_MSW          ON UNIT   1018 AT TIME STEP      1, STRESS PERIOD     67

 HEAD WILL BE SAVED ON UNIT 1017 AT END OF TIME STEP    1, STRESS PERIOD   67


  VOLUME BUDGET FOR ENTIRE MODEL AT END OF TIME STEP    1, STRESS PERIOD  67
  ---------------------------------------------------------------------------------------------------

     CUMULATIVE VOLUME      L**3       RATES FOR THIS TIME STEP      L**3/T          PACKAGE NAME    
     ------------------                 ------------------------                     ----------------

           IN:                                      IN:
           ---                                      ---
              STO-SS =      176116.7320                STO-SS =         407.6609     STORAGE                          
                 DRN =           0.0000                   DRN =           0.0000     DRN_SYS1                         
                 RIV =       26773.2564                   RIV =         846.2246     RIV_SYS1                         
                 RIV =           0.0000                   RIV =           0.0000     RIV_SYS2                         
                 RCH =      121704.7115                   RCH =         935.5876     RCH_MSW                          

            TOTAL IN =      324594.6998              TOTAL IN =        2189.4731

          OUT:                                     OUT:
          ----                                     ----
              STO-SS =         230.7960                STO-SS =           0.0000     STORAGE                          
                 DRN =        7518.0277                   DRN =          44.5075     DRN_SYS1                         
                 RIV =      293339.6583                   RIV =        2020.1836     RIV_SYS1                         
                 RIV =       20148.6006                   RIV =         124.7856     RIV_SYS2                         
                 RCH =        3357.8410                   RCH =           0.0000     RCH_MSW                          

           TOTAL OUT =      324594.9236             TOTAL OUT =        2189.4767

            IN - OUT =          -0.2237              IN - OUT =      -3.6127E-03

 PERCENT DISCREPANCY =          -0.00     PERCENT DISCREPANCY =          -0.00




         TIME SUMMARY AT END OF TIME STEP    1 IN STRESS PERIOD   67
                    SECONDS     MINUTES      HOURS       DAYS        YEARS
                    -----------------------------------------------------------
   TIME STEP LENGTH  86400.      1440.0      24.000      1.0000     2.73785E-03
 STRESS PERIOD TIME  86400.      1440.0      24.000      1.0000     2.73785E-03
         TOTAL TIME 5.78880E+06  96480.      1608.0      67.000     0.18344    


end timestep


start timestep kper="68" kstp="1" mode="normal"

 #Stressperiod Save Options

 BEGIN READING OUTPUT CONTROL FOR STRESS PERIOD 68
      ALL TIME STEPS WILL BE SAVED
      ALL TIME STEPS WILL BE SAVED

 END READING OUTPUT CONTROL FOR STRESS PERIOD 68


 PROCESSING STORAGE PERIOD DATA
 END PROCESSING STORAGE PERIOD DATA


 STRESS PERIOD 68 IS TRANSIENT


 REUSING DRNS FROM LAST STRESS PERIOD

 REUSING RIVS FROM LAST STRESS PERIOD

 REUSING RIVS FROM LAST STRESS PERIOD

 REUSING RCHS FROM LAST STRESS PERIOD
 UBDSV06 SAVING              DRN IN MODEL GWF_1            PACKAGE GWF_1           CONNECTED TO MODEL GWF_1            PACKAGE DRN_SYS1         ON UNIT   1018 AT TIME STEP      1, STRESS PERIOD     68
 UBDSV06 SAVING              RIV IN MODEL GWF_1            PACKAGE GWF_1           CONNECTED TO MODEL GWF_1            PACKAGE RIV_SYS1         ON UNIT   1018 AT TIME STEP      1, STRESS PERIOD     68
 UBDSV06 SAVING              RIV IN MODEL GWF_1            PACKAGE GWF_1           CONNECTED TO MODEL GWF_1            PACKAGE RIV_SYS2         ON UNIT   1018 AT TIME STEP      1, STRESS PERIOD     68
 UBDSV06 SAVING              RCH IN MODEL GWF_1            PACKAGE GWF_1           CONNECTED TO MODEL GWF_1            PACKAGE RCH_MSW          ON UNIT   1018 AT TIME STEP      1, STRESS PERIOD     68

 HEAD WILL BE SAVED ON UNIT 1017 AT END OF TIME STEP    1, STRESS PERIOD   68


  VOLUME BUDGET FOR ENTIRE MODEL AT END OF TIME STEP    1, STRESS PERIOD  68
  ---------------------------------------------------------------------------------------------------

     CUMULATIVE VOLUME      L**3       RATES FOR THIS TIME STEP      L**3/T          PACKAGE NAME    
     ------------------                 ------------------------                     ----------------

           IN:                                      IN:
           ---                                      ---
              STO-SS =      176506.9500                STO-SS =         390.2180     STORAGE                          
                 DRN =           0.0000                   DRN =           0.0000     DRN_SYS1                         
                 RIV =       27624.3952                   RIV =         851.1388     RIV_SYS1                         
                 RIV =           0.0000                   RIV =           0.0000     RIV_SYS2                         
                 RCH =      122636.2161                   RCH =         931.5046     RCH_MSW                          

            TOTAL IN =      326767.5613              TOTAL IN =        2172.8614

          OUT:                                     OUT:
          ----                                     ----
              STO-SS =         230.7960                STO-SS =           0.0000     STORAGE                          
                 DRN =        7561.8265                   DRN =          43.7988     DRN_SYS1                         
                 RIV =      295345.5617                   RIV =        2005.9034     RIV_SYS1                         
                 RIV =       20271.7633                   RIV =         123.1627     RIV_SYS2                         
                 RCH =        3357.8410                   RCH =           0.0000     RCH_MSW                          

           TOTAL OUT =      326767.7884             TOTAL OUT =        2172.8649

            IN - OUT =          -0.2272              IN - OUT =      -3.4592E-03

 PERCENT DISCREPANCY =          -0.00     PERCENT DISCREPANCY =          -0.00




         TIME SUMMARY AT END OF TIME STEP    1 IN STRESS PERIOD   68
                    SECONDS     MINUTES      HOURS       DAYS        YEARS
                    -----------------------------------------------------------
   TIME STEP LENGTH  86400.      1440.0      24.000      1.0000     2.73785E-03
 STRESS PERIOD TIME  86400.      1440.0      24.000      1.0000     2.73785E-03
         TOTAL TIME 5.87520E+06  97920.      1632.0      68.000     0.18617    


end timestep


start timestep kper="69" kstp="1" mode="normal"

 #Stressperiod Save Options

 BEGIN READING OUTPUT CONTROL FOR STRESS PERIOD 69
      ALL TIME STEPS WILL BE SAVED
      ALL TIME STEPS WILL BE SAVED

 END READING OUTPUT CONTROL FOR STRESS PERIOD 69


 PROCESSING STORAGE PERIOD DATA
 END PROCESSING STORAGE PERIOD DATA


 STRESS PERIOD 69 IS TRANSIENT


 REUSING DRNS FROM LAST STRESS PERIOD

 REUSING RIVS FROM LAST STRESS PERIOD

 REUSING RIVS FROM LAST STRESS PERIOD

 REUSING RCHS FROM LAST STRESS PERIOD
 UBDSV06 SAVING              DRN IN MODEL GWF_1            PACKAGE GWF_1           CONNECTED TO MODEL GWF_1            PACKAGE DRN_SYS1         ON UNIT   1018 AT TIME STEP      1, STRESS PERIOD     69
 UBDSV06 SAVING              RIV IN MODEL GWF_1            PACKAGE GWF_1           CONNECTED TO MODEL GWF_1            PACKAGE RIV_SYS1         ON UNIT   1018 AT TIME STEP      1, STRESS PERIOD     69
 UBDSV06 SAVING              RIV IN MODEL GWF_1            PACKAGE GWF_1           CONNECTED TO MODEL GWF_1            PACKAGE RIV_SYS2         ON UNIT   1018 AT TIME STEP      1, STRESS PERIOD     69
 UBDSV06 SAVING              RCH IN MODEL GWF_1            PACKAGE GWF_1           CONNECTED TO MODEL GWF_1            PACKAGE RCH_MSW          ON UNIT   1018 AT TIME STEP      1, STRESS PERIOD     69

 HEAD WILL BE SAVED ON UNIT 1017 AT END OF TIME STEP    1, STRESS PERIOD   69


  VOLUME BUDGET FOR ENTIRE MODEL AT END OF TIME STEP    1, STRESS PERIOD  69
  ---------------------------------------------------------------------------------------------------

     CUMULATIVE VOLUME      L**3       RATES FOR THIS TIME STEP      L**3/T          PACKAGE NAME    
     ------------------                 ------------------------                     ----------------

           IN:                                      IN:
           ---                                      ---
              STO-SS =      176887.6300                STO-SS =         380.6800     STORAGE                          
                 DRN =           0.0000                   DRN =           0.0000     DRN_SYS1                         
                 RIV =       28480.7798                   RIV =         856.3846     RIV_SYS1                         
                 RIV =           0.0000                   RIV =           0.0000     RIV_SYS2                         
                 RCH =      123554.8584                   RCH =         918.6423     RCH_MSW                          

            TOTAL IN =      328923.2681              TOTAL IN =        2155.7069

          OUT:                                     OUT:
          ----                                     ----
              STO-SS =         230.7960                STO-SS =           0.0000     STORAGE                          
                 DRN =        7604.9451                   DRN =          43.1186     DRN_SYS1                         
                 RIV =      297336.5564                   RIV =        1990.9947     RIV_SYS1                         
                 RIV =       20393.3593                   RIV =         121.5960     RIV_SYS2                         
                 RCH =        3357.8410                   RCH =           0.0000     RCH_MSW                          

           TOTAL OUT =      328923.4977             TOTAL OUT =        2155.7093

            IN - OUT =          -0.2296              IN - OUT =      -2.4303E-03

 PERCENT DISCREPANCY =          -0.00     PERCENT DISCREPANCY =          -0.00




         TIME SUMMARY AT END OF TIME STEP    1 IN STRESS PERIOD   69
                    SECONDS     MINUTES      HOURS       DAYS        YEARS
                    -----------------------------------------------------------
   TIME STEP LENGTH  86400.      1440.0      24.000      1.0000     2.73785E-03
 STRESS PERIOD TIME  86400.      1440.0      24.000      1.0000     2.73785E-03
         TOTAL TIME 5.96160E+06  99360.      1656.0      69.000     0.18891    


end timestep


start timestep kper="70" kstp="1" mode="normal"

 #Stressperiod Save Options

 BEGIN READING OUTPUT CONTROL FOR STRESS PERIOD 70
      ALL TIME STEPS WILL BE SAVED
      ALL TIME STEPS WILL BE SAVED

 END READING OUTPUT CONTROL FOR STRESS PERIOD 70


 PROCESSING STORAGE PERIOD DATA
 END PROCESSING STORAGE PERIOD DATA


 STRESS PERIOD 70 IS TRANSIENT


 REUSING DRNS FROM LAST STRESS PERIOD

 REUSING RIVS FROM LAST STRESS PERIOD

 REUSING RIVS FROM LAST STRESS PERIOD

 REUSING RCHS FROM LAST STRESS PERIOD
 UBDSV06 SAVING              DRN IN MODEL GWF_1            PACKAGE GWF_1           CONNECTED TO MODEL GWF_1            PACKAGE DRN_SYS1         ON UNIT   1018 AT TIME STEP      1, STRESS PERIOD     70
 UBDSV06 SAVING              RIV IN MODEL GWF_1            PACKAGE GWF_1           CONNECTED TO MODEL GWF_1            PACKAGE RIV_SYS1         ON UNIT   1018 AT TIME STEP      1, STRESS PERIOD     70
 UBDSV06 SAVING              RIV IN MODEL GWF_1            PACKAGE GWF_1           CONNECTED TO MODEL GWF_1            PACKAGE RIV_SYS2         ON UNIT   1018 AT TIME STEP      1, STRESS PERIOD     70
 UBDSV06 SAVING              RCH IN MODEL GWF_1            PACKAGE GWF_1           CONNECTED TO MODEL GWF_1            PACKAGE RCH_MSW          ON UNIT   1018 AT TIME STEP      1, STRESS PERIOD     70

 HEAD WILL BE SAVED ON UNIT 1017 AT END OF TIME STEP    1, STRESS PERIOD   70


  VOLUME BUDGET FOR ENTIRE MODEL AT END OF TIME STEP    1, STRESS PERIOD  70
  ---------------------------------------------------------------------------------------------------

     CUMULATIVE VOLUME      L**3       RATES FOR THIS TIME STEP      L**3/T          PACKAGE NAME    
     ------------------                 ------------------------                     ----------------

           IN:                                      IN:
           ---                                      ---
              STO-SS =      177262.6764                STO-SS =         375.0464     STORAGE                          
                 DRN =           0.0000                   DRN =           0.0000     DRN_SYS1                         
                 RIV =       29342.7715                   RIV =         861.9917     RIV_SYS1                         
                 RIV =           0.0000                   RIV =           0.0000     RIV_SYS2                         
                 RCH =      124455.7656                   RCH =         900.9072     RCH_MSW                          

            TOTAL IN =      331061.2135              TOTAL IN =        2137.9453

          OUT:                                     OUT:
          ----                                     ----
              STO-SS =         230.7960                STO-SS =           0.0000     STORAGE                          
                 DRN =        7647.4041                   DRN =          42.4590     DRN_SYS1                         
                 RIV =      299311.9761                   RIV =        1975.4197     RIV_SYS1                         
                 RIV =       20513.4270                   RIV =         120.0677     RIV_SYS2                         
                 RCH =        3357.8410                   RCH =           0.0000     RCH_MSW                          

           TOTAL OUT =      331061.4442             TOTAL OUT =        2137.9465

            IN - OUT =          -0.2307              IN - OUT =      -1.1239E-03

 PERCENT DISCREPANCY =          -0.00     PERCENT DISCREPANCY =          -0.00




         TIME SUMMARY AT END OF TIME STEP    1 IN STRESS PERIOD   70
                    SECONDS     MINUTES      HOURS       DAYS        YEARS
                    -----------------------------------------------------------
   TIME STEP LENGTH  86400.      1440.0      24.000      1.0000     2.73785E-03
 STRESS PERIOD TIME  86400.      1440.0      24.000      1.0000     2.73785E-03
         TOTAL TIME 6.04800E+06 1.00800E+05  1680.0      70.000     0.19165    


end timestep


start timestep kper="71" kstp="1" mode="normal"

 #Stressperiod Save Options

 BEGIN READING OUTPUT CONTROL FOR STRESS PERIOD 71
      ALL TIME STEPS WILL BE SAVED
      ALL TIME STEPS WILL BE SAVED

 END READING OUTPUT CONTROL FOR STRESS PERIOD 71


 PROCESSING STORAGE PERIOD DATA
 END PROCESSING STORAGE PERIOD DATA


 STRESS PERIOD 71 IS TRANSIENT


 REUSING DRNS FROM LAST STRESS PERIOD

 REUSING RIVS FROM LAST STRESS PERIOD

 REUSING RIVS FROM LAST STRESS PERIOD

 REUSING RCHS FROM LAST STRESS PERIOD
 UBDSV06 SAVING              DRN IN MODEL GWF_1            PACKAGE GWF_1           CONNECTED TO MODEL GWF_1            PACKAGE DRN_SYS1         ON UNIT   1018 AT TIME STEP      1, STRESS PERIOD     71
 UBDSV06 SAVING              RIV IN MODEL GWF_1            PACKAGE GWF_1           CONNECTED TO MODEL GWF_1            PACKAGE RIV_SYS1         ON UNIT   1018 AT TIME STEP      1, STRESS PERIOD     71
 UBDSV06 SAVING              RIV IN MODEL GWF_1            PACKAGE GWF_1           CONNECTED TO MODEL GWF_1            PACKAGE RIV_SYS2         ON UNIT   1018 AT TIME STEP      1, STRESS PERIOD     71
 UBDSV06 SAVING              RCH IN MODEL GWF_1            PACKAGE GWF_1           CONNECTED TO MODEL GWF_1            PACKAGE RCH_MSW          ON UNIT   1018 AT TIME STEP      1, STRESS PERIOD     71

 HEAD WILL BE SAVED ON UNIT 1017 AT END OF TIME STEP    1, STRESS PERIOD   71


  VOLUME BUDGET FOR ENTIRE MODEL AT END OF TIME STEP    1, STRESS PERIOD  71
  ---------------------------------------------------------------------------------------------------

     CUMULATIVE VOLUME      L**3       RATES FOR THIS TIME STEP      L**3/T          PACKAGE NAME    
     ------------------                 ------------------------                     ----------------

           IN:                                      IN:
           ---                                      ---
              STO-SS =      177634.0011                STO-SS =         371.3247     STORAGE                          
                 DRN =           0.0000                   DRN =           0.0000     DRN_SYS1                         
                 RIV =       30211.5261                   RIV =         868.7546     RIV_SYS1                         
                 RIV =           0.0000                   RIV =           0.0000     RIV_SYS2                         
                 RCH =      125336.2081                   RCH =         880.4425     RCH_MSW                          

            TOTAL IN =      333181.7353              TOTAL IN =        2120.5218

          OUT:                                     OUT:
          ----                                     ----
              STO-SS =         230.7960                STO-SS =           0.0000     STORAGE                          
                 DRN =        7689.2195                   DRN =          41.8154     DRN_SYS1                         
                 RIV =      301272.1169                   RIV =        1960.1408     RIV_SYS1                         
                 RIV =       20631.9953                   RIV =         118.5683     RIV_SYS2                         
                 RCH =        3357.8410                   RCH =           0.0000     RCH_MSW                          

           TOTAL OUT =      333181.9686             TOTAL OUT =        2120.5244

            IN - OUT =          -0.2333              IN - OUT =      -2.6134E-03

 PERCENT DISCREPANCY =          -0.00     PERCENT DISCREPANCY =          -0.00




         TIME SUMMARY AT END OF TIME STEP    1 IN STRESS PERIOD   71
                    SECONDS     MINUTES      HOURS       DAYS        YEARS
                    -----------------------------------------------------------
   TIME STEP LENGTH  86400.      1440.0      24.000      1.0000     2.73785E-03
 STRESS PERIOD TIME  86400.      1440.0      24.000      1.0000     2.73785E-03
         TOTAL TIME 6.13440E+06 1.02240E+05  1704.0      71.000     0.19439    


end timestep


start timestep kper="72" kstp="1" mode="normal"

 #Stressperiod Save Options

 BEGIN READING OUTPUT CONTROL FOR STRESS PERIOD 72
      ALL TIME STEPS WILL BE SAVED
      ALL TIME STEPS WILL BE SAVED

 END READING OUTPUT CONTROL FOR STRESS PERIOD 72


 PROCESSING STORAGE PERIOD DATA
 END PROCESSING STORAGE PERIOD DATA


 STRESS PERIOD 72 IS TRANSIENT


 REUSING DRNS FROM LAST STRESS PERIOD

 REUSING RIVS FROM LAST STRESS PERIOD

 REUSING RIVS FROM LAST STRESS PERIOD

 REUSING RCHS FROM LAST STRESS PERIOD
 UBDSV06 SAVING              DRN IN MODEL GWF_1            PACKAGE GWF_1           CONNECTED TO MODEL GWF_1            PACKAGE DRN_SYS1         ON UNIT   1018 AT TIME STEP      1, STRESS PERIOD     72
 UBDSV06 SAVING              RIV IN MODEL GWF_1            PACKAGE GWF_1           CONNECTED TO MODEL GWF_1            PACKAGE RIV_SYS1         ON UNIT   1018 AT TIME STEP      1, STRESS PERIOD     72
 UBDSV06 SAVING              RIV IN MODEL GWF_1            PACKAGE GWF_1           CONNECTED TO MODEL GWF_1            PACKAGE RIV_SYS2         ON UNIT   1018 AT TIME STEP      1, STRESS PERIOD     72
 UBDSV06 SAVING              RCH IN MODEL GWF_1            PACKAGE GWF_1           CONNECTED TO MODEL GWF_1            PACKAGE RCH_MSW          ON UNIT   1018 AT TIME STEP      1, STRESS PERIOD     72

 HEAD WILL BE SAVED ON UNIT 1017 AT END OF TIME STEP    1, STRESS PERIOD   72


  VOLUME BUDGET FOR ENTIRE MODEL AT END OF TIME STEP    1, STRESS PERIOD  72
  ---------------------------------------------------------------------------------------------------

     CUMULATIVE VOLUME      L**3       RATES FOR THIS TIME STEP      L**3/T          PACKAGE NAME    
     ------------------                 ------------------------                     ----------------

           IN:                                      IN:
           ---                                      ---
              STO-SS =      177977.2534                STO-SS =         343.2522     STORAGE                          
                 DRN =           0.0000                   DRN =           0.0000     DRN_SYS1                         
                 RIV =       31085.8666                   RIV =         874.3405     RIV_SYS1                         
                 RIV =           0.0000                   RIV =           0.0000     RIV_SYS2                         
                 RCH =      126224.3758                   RCH =         888.1677     RCH_MSW                          

            TOTAL IN =      335287.4957              TOTAL IN =        2105.7604

          OUT:                                     OUT:
          ----                                     ----
              STO-SS =         230.7960                STO-SS =           0.0000     STORAGE                          
                 DRN =        7730.4253                   DRN =          41.2058     DRN_SYS1                         
                 RIV =      303219.5167                   RIV =        1947.3998     RIV_SYS1                         
                 RIV =       20749.1510                   RIV =         117.1557     RIV_SYS2                         
                 RCH =        3357.8410                   RCH =           0.0000     RCH_MSW                          

           TOTAL OUT =      335287.7299             TOTAL OUT =        2105.7613

            IN - OUT =          -0.2342              IN - OUT =      -8.5543E-04

 PERCENT DISCREPANCY =          -0.00     PERCENT DISCREPANCY =          -0.00




         TIME SUMMARY AT END OF TIME STEP    1 IN STRESS PERIOD   72
                    SECONDS     MINUTES      HOURS       DAYS        YEARS
                    -----------------------------------------------------------
   TIME STEP LENGTH  86400.      1440.0      24.000      1.0000     2.73785E-03
 STRESS PERIOD TIME  86400.      1440.0      24.000      1.0000     2.73785E-03
         TOTAL TIME 6.22080E+06 1.03680E+05  1728.0      72.000     0.19713    


end timestep


start timestep kper="73" kstp="1" mode="normal"

 #Stressperiod Save Options

 BEGIN READING OUTPUT CONTROL FOR STRESS PERIOD 73
      ALL TIME STEPS WILL BE SAVED
      ALL TIME STEPS WILL BE SAVED

 END READING OUTPUT CONTROL FOR STRESS PERIOD 73


 PROCESSING STORAGE PERIOD DATA
 END PROCESSING STORAGE PERIOD DATA


 STRESS PERIOD 73 IS TRANSIENT


 REUSING DRNS FROM LAST STRESS PERIOD

 REUSING RIVS FROM LAST STRESS PERIOD

 REUSING RIVS FROM LAST STRESS PERIOD

 REUSING RCHS FROM LAST STRESS PERIOD
 UBDSV06 SAVING              DRN IN MODEL GWF_1            PACKAGE GWF_1           CONNECTED TO MODEL GWF_1            PACKAGE DRN_SYS1         ON UNIT   1018 AT TIME STEP      1, STRESS PERIOD     73
 UBDSV06 SAVING              RIV IN MODEL GWF_1            PACKAGE GWF_1           CONNECTED TO MODEL GWF_1            PACKAGE RIV_SYS1         ON UNIT   1018 AT TIME STEP      1, STRESS PERIOD     73
 UBDSV06 SAVING              RIV IN MODEL GWF_1            PACKAGE GWF_1           CONNECTED TO MODEL GWF_1            PACKAGE RIV_SYS2         ON UNIT   1018 AT TIME STEP      1, STRESS PERIOD     73
 UBDSV06 SAVING              RCH IN MODEL GWF_1            PACKAGE GWF_1           CONNECTED TO MODEL GWF_1            PACKAGE RCH_MSW          ON UNIT   1018 AT TIME STEP      1, STRESS PERIOD     73

 HEAD WILL BE SAVED ON UNIT 1017 AT END OF TIME STEP    1, STRESS PERIOD   73


  VOLUME BUDGET FOR ENTIRE MODEL AT END OF TIME STEP    1, STRESS PERIOD  73
  ---------------------------------------------------------------------------------------------------

     CUMULATIVE VOLUME      L**3       RATES FOR THIS TIME STEP      L**3/T          PACKAGE NAME    
     ------------------                 ------------------------                     ----------------

           IN:                                      IN:
           ---                                      ---
              STO-SS =      178326.7770                STO-SS =         349.5237     STORAGE                          
                 DRN =           0.0000                   DRN =           0.0000     DRN_SYS1                         
                 RIV =       31966.7904                   RIV =         880.9238     RIV_SYS1                         
                 RIV =           0.0000                   RIV =           0.0000     RIV_SYS2                         
                 RCH =      127082.9143                   RCH =         858.5385     RCH_MSW                          

            TOTAL IN =      337376.4817              TOTAL IN =        2088.9860

          OUT:                                     OUT:
          ----                                     ----
              STO-SS =         230.7960                STO-SS =           0.0000     STORAGE                          
                 DRN =        7771.0315                   DRN =          40.6062     DRN_SYS1                         
                 RIV =      305152.1394                   RIV =        1932.6227     RIV_SYS1                         
                 RIV =       20864.9099                   RIV =         115.7589     RIV_SYS2                         
                 RCH =        3357.8410                   RCH =           0.0000     RCH_MSW                          

           TOTAL OUT =      337376.7177             TOTAL OUT =        2088.9878

            IN - OUT =          -0.2359              IN - OUT =      -1.7461E-03

 PERCENT DISCREPANCY =          -0.00     PERCENT DISCREPANCY =          -0.00




         TIME SUMMARY AT END OF TIME STEP    1 IN STRESS PERIOD   73
                    SECONDS     MINUTES      HOURS       DAYS        YEARS
                    -----------------------------------------------------------
   TIME STEP LENGTH  86400.      1440.0      24.000      1.0000     2.73785E-03
 STRESS PERIOD TIME  86400.      1440.0      24.000      1.0000     2.73785E-03
         TOTAL TIME 6.30720E+06 1.05120E+05  1752.0      73.000     0.19986    


end timestep


start timestep kper="74" kstp="1" mode="normal"

 #Stressperiod Save Options

 BEGIN READING OUTPUT CONTROL FOR STRESS PERIOD 74
      ALL TIME STEPS WILL BE SAVED
      ALL TIME STEPS WILL BE SAVED

 END READING OUTPUT CONTROL FOR STRESS PERIOD 74


 PROCESSING STORAGE PERIOD DATA
 END PROCESSING STORAGE PERIOD DATA


 STRESS PERIOD 74 IS TRANSIENT


 REUSING DRNS FROM LAST STRESS PERIOD

 REUSING RIVS FROM LAST STRESS PERIOD

 REUSING RIVS FROM LAST STRESS PERIOD

 REUSING RCHS FROM LAST STRESS PERIOD
 UBDSV06 SAVING              DRN IN MODEL GWF_1            PACKAGE GWF_1           CONNECTED TO MODEL GWF_1            PACKAGE DRN_SYS1         ON UNIT   1018 AT TIME STEP      1, STRESS PERIOD     74
 UBDSV06 SAVING              RIV IN MODEL GWF_1            PACKAGE GWF_1           CONNECTED TO MODEL GWF_1            PACKAGE RIV_SYS1         ON UNIT   1018 AT TIME STEP      1, STRESS PERIOD     74
 UBDSV06 SAVING              RIV IN MODEL GWF_1            PACKAGE GWF_1           CONNECTED TO MODEL GWF_1            PACKAGE RIV_SYS2         ON UNIT   1018 AT TIME STEP      1, STRESS PERIOD     74
 UBDSV06 SAVING              RCH IN MODEL GWF_1            PACKAGE GWF_1           CONNECTED TO MODEL GWF_1            PACKAGE RCH_MSW          ON UNIT   1018 AT TIME STEP      1, STRESS PERIOD     74

 HEAD WILL BE SAVED ON UNIT 1017 AT END OF TIME STEP    1, STRESS PERIOD   74


  VOLUME BUDGET FOR ENTIRE MODEL AT END OF TIME STEP    1, STRESS PERIOD  74
  ---------------------------------------------------------------------------------------------------

     CUMULATIVE VOLUME      L**3       RATES FOR THIS TIME STEP      L**3/T          PACKAGE NAME    
     ------------------                 ------------------------                     ----------------

           IN:                                      IN:
           ---                                      ---
              STO-SS =      178604.2112                STO-SS =         277.4342     STORAGE                          
                 DRN =           0.0000                   DRN =           0.0000     DRN_SYS1                         
                 RIV =       32849.5327                   RIV =         882.7423     RIV_SYS1                         
                 RIV =           0.0000                   RIV =           0.0000     RIV_SYS2                         
                 RCH =      128004.0383                   RCH =         921.1241     RCH_MSW                          

            TOTAL IN =      339457.7823              TOTAL IN =        2081.3006

          OUT:                                     OUT:
          ----                                     ----
              STO-SS =         231.4262                STO-SS =           0.6302     STORAGE                          
                 DRN =        7811.1122                   DRN =          40.0807     DRN_SYS1                         
                 RIV =      307078.1669                   RIV =        1926.0276     RIV_SYS1                         
                 RIV =       20979.4749                   RIV =         114.5651     RIV_SYS2                         
                 RCH =        3357.8410                   RCH =           0.0000     RCH_MSW                          

           TOTAL OUT =      339458.0212             TOTAL OUT =        2081.3035

            IN - OUT =          -0.2389              IN - OUT =      -2.9173E-03

 PERCENT DISCREPANCY =          -0.00     PERCENT DISCREPANCY =          -0.00




         TIME SUMMARY AT END OF TIME STEP    1 IN STRESS PERIOD   74
                    SECONDS     MINUTES      HOURS       DAYS        YEARS
                    -----------------------------------------------------------
   TIME STEP LENGTH  86400.      1440.0      24.000      1.0000     2.73785E-03
 STRESS PERIOD TIME  86400.      1440.0      24.000      1.0000     2.73785E-03
         TOTAL TIME 6.39360E+06 1.06560E+05  1776.0      74.000     0.20260    


end timestep


start timestep kper="75" kstp="1" mode="normal"

 #Stressperiod Save Options

 BEGIN READING OUTPUT CONTROL FOR STRESS PERIOD 75
      ALL TIME STEPS WILL BE SAVED
      ALL TIME STEPS WILL BE SAVED

 END READING OUTPUT CONTROL FOR STRESS PERIOD 75


 PROCESSING STORAGE PERIOD DATA
 END PROCESSING STORAGE PERIOD DATA


 STRESS PERIOD 75 IS TRANSIENT


 REUSING DRNS FROM LAST STRESS PERIOD

 REUSING RIVS FROM LAST STRESS PERIOD

 REUSING RIVS FROM LAST STRESS PERIOD

 REUSING RCHS FROM LAST STRESS PERIOD
 UBDSV06 SAVING              DRN IN MODEL GWF_1            PACKAGE GWF_1           CONNECTED TO MODEL GWF_1            PACKAGE DRN_SYS1         ON UNIT   1018 AT TIME STEP      1, STRESS PERIOD     75
 UBDSV06 SAVING              RIV IN MODEL GWF_1            PACKAGE GWF_1           CONNECTED TO MODEL GWF_1            PACKAGE RIV_SYS1         ON UNIT   1018 AT TIME STEP      1, STRESS PERIOD     75
 UBDSV06 SAVING              RIV IN MODEL GWF_1            PACKAGE GWF_1           CONNECTED TO MODEL GWF_1            PACKAGE RIV_SYS2         ON UNIT   1018 AT TIME STEP      1, STRESS PERIOD     75
 UBDSV06 SAVING              RCH IN MODEL GWF_1            PACKAGE GWF_1           CONNECTED TO MODEL GWF_1            PACKAGE RCH_MSW          ON UNIT   1018 AT TIME STEP      1, STRESS PERIOD     75

 HEAD WILL BE SAVED ON UNIT 1017 AT END OF TIME STEP    1, STRESS PERIOD   75


  VOLUME BUDGET FOR ENTIRE MODEL AT END OF TIME STEP    1, STRESS PERIOD  75
  ---------------------------------------------------------------------------------------------------

     CUMULATIVE VOLUME      L**3       RATES FOR THIS TIME STEP      L**3/T          PACKAGE NAME    
     ------------------                 ------------------------                     ----------------

           IN:                                      IN:
           ---                                      ---
              STO-SS =      178832.4846                STO-SS =         228.2733     STORAGE                          
                 DRN =           0.0000                   DRN =           0.0000     DRN_SYS1                         
                 RIV =       33731.9338                   RIV =         882.4010     RIV_SYS1                         
                 RIV =           0.0000                   RIV =           0.0000     RIV_SYS2                         
                 RCH =      128972.8426                   RCH =         968.8043     RCH_MSW                          

            TOTAL IN =      341537.2609              TOTAL IN =        2079.4786

          OUT:                                     OUT:
          ----                                     ----
              STO-SS =         234.6756                STO-SS =           3.2494     STORAGE                          
                 DRN =        7850.7405                   DRN =          39.6283     DRN_SYS1                         
                 RIV =      309001.1929                   RIV =        1923.0260     RIV_SYS1                         
                 RIV =       21093.0524                   RIV =         113.5774     RIV_SYS2                         
                 RCH =        3357.8410                   RCH =           0.0000     RCH_MSW                          

           TOTAL OUT =      341537.5023             TOTAL OUT =        2079.4811

            IN - OUT =          -0.2414              IN - OUT =      -2.5098E-03

 PERCENT DISCREPANCY =          -0.00     PERCENT DISCREPANCY =          -0.00




         TIME SUMMARY AT END OF TIME STEP    1 IN STRESS PERIOD   75
                    SECONDS     MINUTES      HOURS       DAYS        YEARS
                    -----------------------------------------------------------
   TIME STEP LENGTH  86400.      1440.0      24.000      1.0000     2.73785E-03
 STRESS PERIOD TIME  86400.      1440.0      24.000      1.0000     2.73785E-03
         TOTAL TIME 6.48000E+06 1.08000E+05  1800.0      75.000     0.20534    


end timestep


start timestep kper="76" kstp="1" mode="normal"

 #Stressperiod Save Options

 BEGIN READING OUTPUT CONTROL FOR STRESS PERIOD 76
      ALL TIME STEPS WILL BE SAVED
      ALL TIME STEPS WILL BE SAVED

 END READING OUTPUT CONTROL FOR STRESS PERIOD 76


 PROCESSING STORAGE PERIOD DATA
 END PROCESSING STORAGE PERIOD DATA


 STRESS PERIOD 76 IS TRANSIENT


 REUSING DRNS FROM LAST STRESS PERIOD

 REUSING RIVS FROM LAST STRESS PERIOD

 REUSING RIVS FROM LAST STRESS PERIOD

 REUSING RCHS FROM LAST STRESS PERIOD
 UBDSV06 SAVING              DRN IN MODEL GWF_1            PACKAGE GWF_1           CONNECTED TO MODEL GWF_1            PACKAGE DRN_SYS1         ON UNIT   1018 AT TIME STEP      1, STRESS PERIOD     76
 UBDSV06 SAVING              RIV IN MODEL GWF_1            PACKAGE GWF_1           CONNECTED TO MODEL GWF_1            PACKAGE RIV_SYS1         ON UNIT   1018 AT TIME STEP      1, STRESS PERIOD     76
 UBDSV06 SAVING              RIV IN MODEL GWF_1            PACKAGE GWF_1           CONNECTED TO MODEL GWF_1            PACKAGE RIV_SYS2         ON UNIT   1018 AT TIME STEP      1, STRESS PERIOD     76
 UBDSV06 SAVING              RCH IN MODEL GWF_1            PACKAGE GWF_1           CONNECTED TO MODEL GWF_1            PACKAGE RCH_MSW          ON UNIT   1018 AT TIME STEP      1, STRESS PERIOD     76

 HEAD WILL BE SAVED ON UNIT 1017 AT END OF TIME STEP    1, STRESS PERIOD   76


  VOLUME BUDGET FOR ENTIRE MODEL AT END OF TIME STEP    1, STRESS PERIOD  76
  ---------------------------------------------------------------------------------------------------

     CUMULATIVE VOLUME      L**3       RATES FOR THIS TIME STEP      L**3/T          PACKAGE NAME    
     ------------------                 ------------------------                     ----------------

           IN:                                      IN:
           ---                                      ---
              STO-SS =      179036.2171                STO-SS =         203.7326     STORAGE                          
                 DRN =           0.0000                   DRN =           0.0000     DRN_SYS1                         
                 RIV =       34613.7228                   RIV =         881.7891     RIV_SYS1                         
                 RIV =           0.0000                   RIV =           0.0000     RIV_SYS2                         
                 RCH =      129963.0520                   RCH =         990.2094     RCH_MSW                          

            TOTAL IN =      343612.9920              TOTAL IN =        2075.7311

          OUT:                                     OUT:
          ----                                     ----
              STO-SS =         238.4249                STO-SS =           3.7493     STORAGE                          
                 DRN =        7889.9716                   DRN =          39.2311     DRN_SYS1                         
                 RIV =      310921.2081                   RIV =        1920.0152     RIV_SYS1                         
                 RIV =       21205.7900                   RIV =         112.7377     RIV_SYS2                         
                 RCH =        3357.8410                   RCH =           0.0000     RCH_MSW                          

           TOTAL OUT =      343613.2356             TOTAL OUT =        2075.7333

            IN - OUT =          -0.2436              IN - OUT =      -2.2062E-03

 PERCENT DISCREPANCY =          -0.00     PERCENT DISCREPANCY =          -0.00




         TIME SUMMARY AT END OF TIME STEP    1 IN STRESS PERIOD   76
                    SECONDS     MINUTES      HOURS       DAYS        YEARS
                    -----------------------------------------------------------
   TIME STEP LENGTH  86400.      1440.0      24.000      1.0000     2.73785E-03
 STRESS PERIOD TIME  86400.      1440.0      24.000      1.0000     2.73785E-03
         TOTAL TIME 6.56640E+06 1.09440E+05  1824.0      76.000     0.20808    


end timestep


start timestep kper="77" kstp="1" mode="normal"

 #Stressperiod Save Options

 BEGIN READING OUTPUT CONTROL FOR STRESS PERIOD 77
      ALL TIME STEPS WILL BE SAVED
      ALL TIME STEPS WILL BE SAVED

 END READING OUTPUT CONTROL FOR STRESS PERIOD 77


 PROCESSING STORAGE PERIOD DATA
 END PROCESSING STORAGE PERIOD DATA


 STRESS PERIOD 77 IS TRANSIENT


 REUSING DRNS FROM LAST STRESS PERIOD

 REUSING RIVS FROM LAST STRESS PERIOD

 REUSING RIVS FROM LAST STRESS PERIOD

 REUSING RCHS FROM LAST STRESS PERIOD
 UBDSV06 SAVING              DRN IN MODEL GWF_1            PACKAGE GWF_1           CONNECTED TO MODEL GWF_1            PACKAGE DRN_SYS1         ON UNIT   1018 AT TIME STEP      1, STRESS PERIOD     77
 UBDSV06 SAVING              RIV IN MODEL GWF_1            PACKAGE GWF_1           CONNECTED TO MODEL GWF_1            PACKAGE RIV_SYS1         ON UNIT   1018 AT TIME STEP      1, STRESS PERIOD     77
 UBDSV06 SAVING              RIV IN MODEL GWF_1            PACKAGE GWF_1           CONNECTED TO MODEL GWF_1            PACKAGE RIV_SYS2         ON UNIT   1018 AT TIME STEP      1, STRESS PERIOD     77
 UBDSV06 SAVING              RCH IN MODEL GWF_1            PACKAGE GWF_1           CONNECTED TO MODEL GWF_1            PACKAGE RCH_MSW          ON UNIT   1018 AT TIME STEP      1, STRESS PERIOD     77

 HEAD WILL BE SAVED ON UNIT 1017 AT END OF TIME STEP    1, STRESS PERIOD   77


  VOLUME BUDGET FOR ENTIRE MODEL AT END OF TIME STEP    1, STRESS PERIOD  77
  ---------------------------------------------------------------------------------------------------

     CUMULATIVE VOLUME      L**3       RATES FOR THIS TIME STEP      L**3/T          PACKAGE NAME    
     ------------------                 ------------------------                     ----------------

           IN:                                      IN:
           ---                                      ---
              STO-SS =      179069.7960                STO-SS =          33.5789     STORAGE                          
                 DRN =           0.0000                   DRN =           0.0000     DRN_SYS1                         
                 RIV =       35475.5611                   RIV =         861.8383     RIV_SYS1                         
                 RIV =           0.0000                   RIV =           0.0000     RIV_SYS2                         
                 RCH =      131339.5759                   RCH =        1376.5238     RCH_MSW                          

            TOTAL IN =      345884.9330              TOTAL IN =        2271.9410

          OUT:                                     OUT:
          ----                                     ----
              STO-SS =         396.6835                STO-SS =         158.2586     STORAGE                          
                 DRN =        7929.2072                   DRN =          39.2355     DRN_SYS1                         
                 RIV =      312882.5907                   RIV =        1961.3826     RIV_SYS1                         
                 RIV =       21318.8472                   RIV =         113.0571     RIV_SYS2                         
                 RCH =        3357.8410                   RCH =           0.0000     RCH_MSW                          

           TOTAL OUT =      345885.1695             TOTAL OUT =        2271.9339

            IN - OUT =          -0.2365              IN - OUT =       7.0607E-03

 PERCENT DISCREPANCY =          -0.00     PERCENT DISCREPANCY =           0.00




         TIME SUMMARY AT END OF TIME STEP    1 IN STRESS PERIOD   77
                    SECONDS     MINUTES      HOURS       DAYS        YEARS
                    -----------------------------------------------------------
   TIME STEP LENGTH  86400.      1440.0      24.000      1.0000     2.73785E-03
 STRESS PERIOD TIME  86400.      1440.0      24.000      1.0000     2.73785E-03
         TOTAL TIME 6.65280E+06 1.10880E+05  1848.0      77.000     0.21081    


end timestep


start timestep kper="78" kstp="1" mode="normal"

 #Stressperiod Save Options

 BEGIN READING OUTPUT CONTROL FOR STRESS PERIOD 78
      ALL TIME STEPS WILL BE SAVED
      ALL TIME STEPS WILL BE SAVED

 END READING OUTPUT CONTROL FOR STRESS PERIOD 78


 PROCESSING STORAGE PERIOD DATA
 END PROCESSING STORAGE PERIOD DATA


 STRESS PERIOD 78 IS TRANSIENT


 REUSING DRNS FROM LAST STRESS PERIOD

 REUSING RIVS FROM LAST STRESS PERIOD

 REUSING RIVS FROM LAST STRESS PERIOD

 REUSING RCHS FROM LAST STRESS PERIOD
 UBDSV06 SAVING              DRN IN MODEL GWF_1            PACKAGE GWF_1           CONNECTED TO MODEL GWF_1            PACKAGE DRN_SYS1         ON UNIT   1018 AT TIME STEP      1, STRESS PERIOD     78
 UBDSV06 SAVING              RIV IN MODEL GWF_1            PACKAGE GWF_1           CONNECTED TO MODEL GWF_1            PACKAGE RIV_SYS1         ON UNIT   1018 AT TIME STEP      1, STRESS PERIOD     78
 UBDSV06 SAVING              RIV IN MODEL GWF_1            PACKAGE GWF_1           CONNECTED TO MODEL GWF_1            PACKAGE RIV_SYS2         ON UNIT   1018 AT TIME STEP      1, STRESS PERIOD     78
 UBDSV06 SAVING              RCH IN MODEL GWF_1            PACKAGE GWF_1           CONNECTED TO MODEL GWF_1            PACKAGE RCH_MSW          ON UNIT   1018 AT TIME STEP      1, STRESS PERIOD     78

 HEAD WILL BE SAVED ON UNIT 1017 AT END OF TIME STEP    1, STRESS PERIOD   78


  VOLUME BUDGET FOR ENTIRE MODEL AT END OF TIME STEP    1, STRESS PERIOD  78
  ---------------------------------------------------------------------------------------------------

     CUMULATIVE VOLUME      L**3       RATES FOR THIS TIME STEP      L**3/T          PACKAGE NAME    
     ------------------                 ------------------------                     ----------------

           IN:                                      IN:
           ---                                      ---
              STO-SS =      179070.7767                STO-SS =           0.9807     STORAGE                          
                 DRN =           0.0000                   DRN =           0.0000     DRN_SYS1                         
                 RIV =       36306.8933                   RIV =         831.3322     RIV_SYS1                         
                 RIV =           0.0000                   RIV =           0.0000     RIV_SYS2                         
                 RCH =      133065.7683                   RCH =        1726.1925     RCH_MSW                          

            TOTAL IN =      348443.4384              TOTAL IN =        2558.5054

          OUT:                                     OUT:
          ----                                     ----
              STO-SS =         771.3457                STO-SS =         374.6622     STORAGE                          
                 DRN =        7968.8337                   DRN =          39.6266     DRN_SYS1                         
                 RIV =      314912.3162                   RIV =        2029.7256     RIV_SYS1                         
                 RIV =       21433.3338                   RIV =         114.4866     RIV_SYS2                         
                 RCH =        3357.8410                   RCH =           0.0000     RCH_MSW                          

           TOTAL OUT =      348443.6704             TOTAL OUT =        2558.5010

            IN - OUT =          -0.2321              IN - OUT =       4.4550E-03

 PERCENT DISCREPANCY =          -0.00     PERCENT DISCREPANCY =           0.00




         TIME SUMMARY AT END OF TIME STEP    1 IN STRESS PERIOD   78
                    SECONDS     MINUTES      HOURS       DAYS        YEARS
                    -----------------------------------------------------------
   TIME STEP LENGTH  86400.      1440.0      24.000      1.0000     2.73785E-03
 STRESS PERIOD TIME  86400.      1440.0      24.000      1.0000     2.73785E-03
         TOTAL TIME 6.73920E+06 1.12320E+05  1872.0      78.000     0.21355    


end timestep


start timestep kper="79" kstp="1" mode="normal"

 #Stressperiod Save Options

 BEGIN READING OUTPUT CONTROL FOR STRESS PERIOD 79
      ALL TIME STEPS WILL BE SAVED
      ALL TIME STEPS WILL BE SAVED

 END READING OUTPUT CONTROL FOR STRESS PERIOD 79


 PROCESSING STORAGE PERIOD DATA
 END PROCESSING STORAGE PERIOD DATA


 STRESS PERIOD 79 IS TRANSIENT


 REUSING DRNS FROM LAST STRESS PERIOD

 REUSING RIVS FROM LAST STRESS PERIOD

 REUSING RIVS FROM LAST STRESS PERIOD

 REUSING RCHS FROM LAST STRESS PERIOD
 UBDSV06 SAVING              DRN IN MODEL GWF_1            PACKAGE GWF_1           CONNECTED TO MODEL GWF_1            PACKAGE DRN_SYS1         ON UNIT   1018 AT TIME STEP      1, STRESS PERIOD     79
 UBDSV06 SAVING              RIV IN MODEL GWF_1            PACKAGE GWF_1           CONNECTED TO MODEL GWF_1            PACKAGE RIV_SYS1         ON UNIT   1018 AT TIME STEP      1, STRESS PERIOD     79
 UBDSV06 SAVING              RIV IN MODEL GWF_1            PACKAGE GWF_1           CONNECTED TO MODEL GWF_1            PACKAGE RIV_SYS2         ON UNIT   1018 AT TIME STEP      1, STRESS PERIOD     79
 UBDSV06 SAVING              RCH IN MODEL GWF_1            PACKAGE GWF_1           CONNECTED TO MODEL GWF_1            PACKAGE RCH_MSW          ON UNIT   1018 AT TIME STEP      1, STRESS PERIOD     79

 HEAD WILL BE SAVED ON UNIT 1017 AT END OF TIME STEP    1, STRESS PERIOD   79


  VOLUME BUDGET FOR ENTIRE MODEL AT END OF TIME STEP    1, STRESS PERIOD  79
  ---------------------------------------------------------------------------------------------------

     CUMULATIVE VOLUME      L**3       RATES FOR THIS TIME STEP      L**3/T          PACKAGE NAME    
     ------------------                 ------------------------                     ----------------

           IN:                                      IN:
           ---                                      ---
              STO-SS =      179070.7767                STO-SS =           0.0000     STORAGE                          
                 DRN =           0.0000                   DRN =           0.0000     DRN_SYS1                         
                 RIV =       37114.6910                   RIV =         807.7977     RIV_SYS1                         
                 RIV =           0.0000                   RIV =           0.0000     RIV_SYS2                         
                 RCH =      134896.4081                   RCH =        1830.6397     RCH_MSW                          

            TOTAL IN =      351081.8758              TOTAL IN =        2638.4374

          OUT:                                     OUT:
          ----                                     ----
              STO-SS =        1173.4126                STO-SS =         402.0669     STORAGE                          
                 DRN =        8008.9841                   DRN =          40.1504     DRN_SYS1                         
                 RIV =      316992.2863                   RIV =        2079.9701     RIV_SYS1                         
                 RIV =       21549.5826                   RIV =         116.2488     RIV_SYS2                         
                 RCH =        3357.8410                   RCH =           0.0000     RCH_MSW                          

           TOTAL OUT =      351082.1066             TOTAL OUT =        2638.4362

            IN - OUT =          -0.2309              IN - OUT =       1.2076E-03

 PERCENT DISCREPANCY =          -0.00     PERCENT DISCREPANCY =           0.00




         TIME SUMMARY AT END OF TIME STEP    1 IN STRESS PERIOD   79
                    SECONDS     MINUTES      HOURS       DAYS        YEARS
                    -----------------------------------------------------------
   TIME STEP LENGTH  86400.      1440.0      24.000      1.0000     2.73785E-03
 STRESS PERIOD TIME  86400.      1440.0      24.000      1.0000     2.73785E-03
         TOTAL TIME 6.82560E+06 1.13760E+05  1896.0      79.000     0.21629    


end timestep


start timestep kper="80" kstp="1" mode="normal"

 #Stressperiod Save Options

 BEGIN READING OUTPUT CONTROL FOR STRESS PERIOD 80
      ALL TIME STEPS WILL BE SAVED
      ALL TIME STEPS WILL BE SAVED

 END READING OUTPUT CONTROL FOR STRESS PERIOD 80


 PROCESSING STORAGE PERIOD DATA
 END PROCESSING STORAGE PERIOD DATA


 STRESS PERIOD 80 IS TRANSIENT


 REUSING DRNS FROM LAST STRESS PERIOD

 REUSING RIVS FROM LAST STRESS PERIOD

 REUSING RIVS FROM LAST STRESS PERIOD

 REUSING RCHS FROM LAST STRESS PERIOD
 UBDSV06 SAVING              DRN IN MODEL GWF_1            PACKAGE GWF_1           CONNECTED TO MODEL GWF_1            PACKAGE DRN_SYS1         ON UNIT   1018 AT TIME STEP      1, STRESS PERIOD     80
 UBDSV06 SAVING              RIV IN MODEL GWF_1            PACKAGE GWF_1           CONNECTED TO MODEL GWF_1            PACKAGE RIV_SYS1         ON UNIT   1018 AT TIME STEP      1, STRESS PERIOD     80
 UBDSV06 SAVING              RIV IN MODEL GWF_1            PACKAGE GWF_1           CONNECTED TO MODEL GWF_1            PACKAGE RIV_SYS2         ON UNIT   1018 AT TIME STEP      1, STRESS PERIOD     80
 UBDSV06 SAVING              RCH IN MODEL GWF_1            PACKAGE GWF_1           CONNECTED TO MODEL GWF_1            PACKAGE RCH_MSW          ON UNIT   1018 AT TIME STEP      1, STRESS PERIOD     80

 HEAD WILL BE SAVED ON UNIT 1017 AT END OF TIME STEP    1, STRESS PERIOD   80


  VOLUME BUDGET FOR ENTIRE MODEL AT END OF TIME STEP    1, STRESS PERIOD  80
  ---------------------------------------------------------------------------------------------------

     CUMULATIVE VOLUME      L**3       RATES FOR THIS TIME STEP      L**3/T          PACKAGE NAME    
     ------------------                 ------------------------                     ----------------

           IN:                                      IN:
           ---                                      ---
              STO-SS =      179070.7767                STO-SS =           0.0000     STORAGE                          
                 DRN =           0.0000                   DRN =           0.0000     DRN_SYS1                         
                 RIV =       37907.7233                   RIV =         793.0323     RIV_SYS1                         
                 RIV =           0.0000                   RIV =           0.0000     RIV_SYS2                         
                 RCH =      136726.2489                   RCH =        1829.8408     RCH_MSW                          

            TOTAL IN =      353704.7488              TOTAL IN =        2622.8730

          OUT:                                     OUT:
          ----                                     ----
              STO-SS =        1528.4326                STO-SS =         355.0201     STORAGE                          
                 DRN =        8049.6718                   DRN =          40.6877     DRN_SYS1                         
                 RIV =      319101.4632                   RIV =        2109.1769     RIV_SYS1                         
                 RIV =       21667.5700                   RIV =         117.9874     RIV_SYS2                         
                 RCH =        3357.8410                   RCH =           0.0000     RCH_MSW                          

           TOTAL OUT =      353704.9786             TOTAL OUT =        2622.8720

            IN - OUT =          -0.2298              IN - OUT =       1.0671E-03

 PERCENT DISCREPANCY =          -0.00     PERCENT DISCREPANCY =           0.00




         TIME SUMMARY AT END OF TIME STEP    1 IN STRESS PERIOD   80
                    SECONDS     MINUTES      HOURS       DAYS        YEARS
                    -----------------------------------------------------------
   TIME STEP LENGTH  86400.      1440.0      24.000      1.0000     2.73785E-03
 STRESS PERIOD TIME  86400.      1440.0      24.000      1.0000     2.73785E-03
         TOTAL TIME 6.91200E+06 1.15200E+05  1920.0      80.000     0.21903    


end timestep


start timestep kper="81" kstp="1" mode="normal"

 #Stressperiod Save Options

 BEGIN READING OUTPUT CONTROL FOR STRESS PERIOD 81
      ALL TIME STEPS WILL BE SAVED
      ALL TIME STEPS WILL BE SAVED

 END READING OUTPUT CONTROL FOR STRESS PERIOD 81


 PROCESSING STORAGE PERIOD DATA
 END PROCESSING STORAGE PERIOD DATA


 STRESS PERIOD 81 IS TRANSIENT


 REUSING DRNS FROM LAST STRESS PERIOD

 REUSING RIVS FROM LAST STRESS PERIOD

 REUSING RIVS FROM LAST STRESS PERIOD

 REUSING RCHS FROM LAST STRESS PERIOD
 UBDSV06 SAVING              DRN IN MODEL GWF_1            PACKAGE GWF_1           CONNECTED TO MODEL GWF_1            PACKAGE DRN_SYS1         ON UNIT   1018 AT TIME STEP      1, STRESS PERIOD     81
 UBDSV06 SAVING              RIV IN MODEL GWF_1            PACKAGE GWF_1           CONNECTED TO MODEL GWF_1            PACKAGE RIV_SYS1         ON UNIT   1018 AT TIME STEP      1, STRESS PERIOD     81
 UBDSV06 SAVING              RIV IN MODEL GWF_1            PACKAGE GWF_1           CONNECTED TO MODEL GWF_1            PACKAGE RIV_SYS2         ON UNIT   1018 AT TIME STEP      1, STRESS PERIOD     81
 UBDSV06 SAVING              RCH IN MODEL GWF_1            PACKAGE GWF_1           CONNECTED TO MODEL GWF_1            PACKAGE RCH_MSW          ON UNIT   1018 AT TIME STEP      1, STRESS PERIOD     81

 HEAD WILL BE SAVED ON UNIT 1017 AT END OF TIME STEP    1, STRESS PERIOD   81


  VOLUME BUDGET FOR ENTIRE MODEL AT END OF TIME STEP    1, STRESS PERIOD  81
  ---------------------------------------------------------------------------------------------------

     CUMULATIVE VOLUME      L**3       RATES FOR THIS TIME STEP      L**3/T          PACKAGE NAME    
     ------------------                 ------------------------                     ----------------

           IN:                                      IN:
           ---                                      ---
              STO-SS =      179070.7767                STO-SS =           0.0000     STORAGE                          
                 DRN =           0.0000                   DRN =           0.0000     DRN_SYS1                         
                 RIV =       38689.7347                   RIV =         782.0114     RIV_SYS1                         
                 RIV =           0.0000                   RIV =           0.0000     RIV_SYS2                         
                 RCH =      138564.2512                   RCH =        1838.0024     RCH_MSW                          

            TOTAL IN =      356324.7626              TOTAL IN =        2620.0138

          OUT:                                     OUT:
          ----                                     ----
              STO-SS =        1857.5172                STO-SS =         329.0846     STORAGE                          
                 DRN =        8090.9040                   DRN =          41.2322     DRN_SYS1                         
                 RIV =      321231.4732                   RIV =        2130.0100     RIV_SYS1                         
                 RIV =       21787.2562                   RIV =         119.6862     RIV_SYS2                         
                 RCH =        3357.8410                   RCH =           0.0000     RCH_MSW                          

           TOTAL OUT =      356324.9916             TOTAL OUT =        2620.0130

            IN - OUT =          -0.2290              IN - OUT =       8.4161E-04

 PERCENT DISCREPANCY =          -0.00     PERCENT DISCREPANCY =           0.00




         TIME SUMMARY AT END OF TIME STEP    1 IN STRESS PERIOD   81
                    SECONDS     MINUTES      HOURS       DAYS        YEARS
                    -----------------------------------------------------------
   TIME STEP LENGTH  86400.      1440.0      24.000      1.0000     2.73785E-03
 STRESS PERIOD TIME  86400.      1440.0      24.000      1.0000     2.73785E-03
         TOTAL TIME 6.99840E+06 1.16640E+05  1944.0      81.000     0.22177    


end timestep


start timestep kper="82" kstp="1" mode="normal"

 #Stressperiod Save Options

 BEGIN READING OUTPUT CONTROL FOR STRESS PERIOD 82
      ALL TIME STEPS WILL BE SAVED
      ALL TIME STEPS WILL BE SAVED

 END READING OUTPUT CONTROL FOR STRESS PERIOD 82


 PROCESSING STORAGE PERIOD DATA
 END PROCESSING STORAGE PERIOD DATA


 STRESS PERIOD 82 IS TRANSIENT


 REUSING DRNS FROM LAST STRESS PERIOD

 REUSING RIVS FROM LAST STRESS PERIOD

 REUSING RIVS FROM LAST STRESS PERIOD

 REUSING RCHS FROM LAST STRESS PERIOD
 UBDSV06 SAVING              DRN IN MODEL GWF_1            PACKAGE GWF_1           CONNECTED TO MODEL GWF_1            PACKAGE DRN_SYS1         ON UNIT   1018 AT TIME STEP      1, STRESS PERIOD     82
 UBDSV06 SAVING              RIV IN MODEL GWF_1            PACKAGE GWF_1           CONNECTED TO MODEL GWF_1            PACKAGE RIV_SYS1         ON UNIT   1018 AT TIME STEP      1, STRESS PERIOD     82
 UBDSV06 SAVING              RIV IN MODEL GWF_1            PACKAGE GWF_1           CONNECTED TO MODEL GWF_1            PACKAGE RIV_SYS2         ON UNIT   1018 AT TIME STEP      1, STRESS PERIOD     82
 UBDSV06 SAVING              RCH IN MODEL GWF_1            PACKAGE GWF_1           CONNECTED TO MODEL GWF_1            PACKAGE RCH_MSW          ON UNIT   1018 AT TIME STEP      1, STRESS PERIOD     82

 HEAD WILL BE SAVED ON UNIT 1017 AT END OF TIME STEP    1, STRESS PERIOD   82


  VOLUME BUDGET FOR ENTIRE MODEL AT END OF TIME STEP    1, STRESS PERIOD  82
  ---------------------------------------------------------------------------------------------------

     CUMULATIVE VOLUME      L**3       RATES FOR THIS TIME STEP      L**3/T          PACKAGE NAME    
     ------------------                 ------------------------                     ----------------

           IN:                                      IN:
           ---                                      ---
              STO-SS =      179071.0194                STO-SS =           0.2427     STORAGE                          
                 DRN =           0.0000                   DRN =           0.0000     DRN_SYS1                         
                 RIV =       39464.7538                   RIV =         775.0191     RIV_SYS1                         
                 RIV =           0.0000                   RIV =           0.0000     RIV_SYS2                         
                 RCH =      140377.2141                   RCH =        1812.9629     RCH_MSW                          

            TOTAL IN =      358912.9873              TOTAL IN =        2588.2247

          OUT:                                     OUT:
          ----                                     ----
              STO-SS =        2140.7206                STO-SS =         283.2034     STORAGE                          
                 DRN =        8132.6403                   DRN =          41.7363     DRN_SYS1                         
                 RIV =      323373.5436                   RIV =        2142.0704     RIV_SYS1                         
                 RIV =       21908.4706                   RIV =         121.2144     RIV_SYS2                         
                 RCH =        3357.8410                   RCH =           0.0000     RCH_MSW                          

           TOTAL OUT =      358913.2160             TOTAL OUT =        2588.2244

            IN - OUT =          -0.2287              IN - OUT =       2.7270E-04

 PERCENT DISCREPANCY =          -0.00     PERCENT DISCREPANCY =           0.00




         TIME SUMMARY AT END OF TIME STEP    1 IN STRESS PERIOD   82
                    SECONDS     MINUTES      HOURS       DAYS        YEARS
                    -----------------------------------------------------------
   TIME STEP LENGTH  86400.      1440.0      24.000      1.0000     2.73785E-03
 STRESS PERIOD TIME  86400.      1440.0      24.000      1.0000     2.73785E-03
         TOTAL TIME 7.08480E+06 1.18080E+05  1968.0      82.000     0.22450    


end timestep


start timestep kper="83" kstp="1" mode="normal"

 #Stressperiod Save Options

 BEGIN READING OUTPUT CONTROL FOR STRESS PERIOD 83
      ALL TIME STEPS WILL BE SAVED
      ALL TIME STEPS WILL BE SAVED

 END READING OUTPUT CONTROL FOR STRESS PERIOD 83


 PROCESSING STORAGE PERIOD DATA
 END PROCESSING STORAGE PERIOD DATA


 STRESS PERIOD 83 IS TRANSIENT


 REUSING DRNS FROM LAST STRESS PERIOD

 REUSING RIVS FROM LAST STRESS PERIOD

 REUSING RIVS FROM LAST STRESS PERIOD

 REUSING RCHS FROM LAST STRESS PERIOD
 UBDSV06 SAVING              DRN IN MODEL GWF_1            PACKAGE GWF_1           CONNECTED TO MODEL GWF_1            PACKAGE DRN_SYS1         ON UNIT   1018 AT TIME STEP      1, STRESS PERIOD     83
 UBDSV06 SAVING              RIV IN MODEL GWF_1            PACKAGE GWF_1           CONNECTED TO MODEL GWF_1            PACKAGE RIV_SYS1         ON UNIT   1018 AT TIME STEP      1, STRESS PERIOD     83
 UBDSV06 SAVING              RIV IN MODEL GWF_1            PACKAGE GWF_1           CONNECTED TO MODEL GWF_1            PACKAGE RIV_SYS2         ON UNIT   1018 AT TIME STEP      1, STRESS PERIOD     83
 UBDSV06 SAVING              RCH IN MODEL GWF_1            PACKAGE GWF_1           CONNECTED TO MODEL GWF_1            PACKAGE RCH_MSW          ON UNIT   1018 AT TIME STEP      1, STRESS PERIOD     83

 HEAD WILL BE SAVED ON UNIT 1017 AT END OF TIME STEP    1, STRESS PERIOD   83


  VOLUME BUDGET FOR ENTIRE MODEL AT END OF TIME STEP    1, STRESS PERIOD  83
  ---------------------------------------------------------------------------------------------------

     CUMULATIVE VOLUME      L**3       RATES FOR THIS TIME STEP      L**3/T          PACKAGE NAME    
     ------------------                 ------------------------                     ----------------

           IN:                                      IN:
           ---                                      ---
              STO-SS =      179072.7686                STO-SS =           1.7492     STORAGE                          
                 DRN =           0.0000                   DRN =           0.0000     DRN_SYS1                         
                 RIV =       40236.0249                   RIV =         771.2711     RIV_SYS1                         
                 RIV =           0.0000                   RIV =           0.0000     RIV_SYS2                         
                 RCH =      142150.3927                   RCH =        1773.1785     RCH_MSW                          

            TOTAL IN =      361459.1862              TOTAL IN =        2546.1989

          OUT:                                     OUT:
          ----                                     ----
              STO-SS =        2375.0185                STO-SS =         234.2979     STORAGE                          
                 DRN =        8174.8173                   DRN =          42.1771     DRN_SYS1                         
                 RIV =      325520.7481                   RIV =        2147.2045     RIV_SYS1                         
                 RIV =       22030.9884                   RIV =         122.5179     RIV_SYS2                         
                 RCH =        3357.8410                   RCH =           0.0000     RCH_MSW                          

           TOTAL OUT =      361459.4134             TOTAL OUT =        2546.1974

            IN - OUT =          -0.2271              IN - OUT =       1.5444E-03

 PERCENT DISCREPANCY =          -0.00     PERCENT DISCREPANCY =           0.00




         TIME SUMMARY AT END OF TIME STEP    1 IN STRESS PERIOD   83
                    SECONDS     MINUTES      HOURS       DAYS        YEARS
                    -----------------------------------------------------------
   TIME STEP LENGTH  86400.      1440.0      24.000      1.0000     2.73785E-03
 STRESS PERIOD TIME  86400.      1440.0      24.000      1.0000     2.73785E-03
         TOTAL TIME 7.17120E+06 1.19520E+05  1992.0      83.000     0.22724    


end timestep


start timestep kper="84" kstp="1" mode="normal"

 #Stressperiod Save Options

 BEGIN READING OUTPUT CONTROL FOR STRESS PERIOD 84
      ALL TIME STEPS WILL BE SAVED
      ALL TIME STEPS WILL BE SAVED

 END READING OUTPUT CONTROL FOR STRESS PERIOD 84


 PROCESSING STORAGE PERIOD DATA
 END PROCESSING STORAGE PERIOD DATA


 STRESS PERIOD 84 IS TRANSIENT


 REUSING DRNS FROM LAST STRESS PERIOD

 REUSING RIVS FROM LAST STRESS PERIOD

 REUSING RIVS FROM LAST STRESS PERIOD

 REUSING RCHS FROM LAST STRESS PERIOD
 UBDSV06 SAVING              DRN IN MODEL GWF_1            PACKAGE GWF_1           CONNECTED TO MODEL GWF_1            PACKAGE DRN_SYS1         ON UNIT   1018 AT TIME STEP      1, STRESS PERIOD     84
 UBDSV06 SAVING              RIV IN MODEL GWF_1            PACKAGE GWF_1           CONNECTED TO MODEL GWF_1            PACKAGE RIV_SYS1         ON UNIT   1018 AT TIME STEP      1, STRESS PERIOD     84
 UBDSV06 SAVING              RIV IN MODEL GWF_1            PACKAGE GWF_1           CONNECTED TO MODEL GWF_1            PACKAGE RIV_SYS2         ON UNIT   1018 AT TIME STEP      1, STRESS PERIOD     84
 UBDSV06 SAVING              RCH IN MODEL GWF_1            PACKAGE GWF_1           CONNECTED TO MODEL GWF_1            PACKAGE RCH_MSW          ON UNIT   1018 AT TIME STEP      1, STRESS PERIOD     84

 HEAD WILL BE SAVED ON UNIT 1017 AT END OF TIME STEP    1, STRESS PERIOD   84


  VOLUME BUDGET FOR ENTIRE MODEL AT END OF TIME STEP    1, STRESS PERIOD  84
  ---------------------------------------------------------------------------------------------------

     CUMULATIVE VOLUME      L**3       RATES FOR THIS TIME STEP      L**3/T          PACKAGE NAME    
     ------------------                 ------------------------                     ----------------

           IN:                                      IN:
           ---                                      ---
              STO-SS =      179072.7686                STO-SS =           0.0000     STORAGE                          
                 DRN =           0.0000                   DRN =           0.0000     DRN_SYS1                         
                 RIV =       40963.1913                   RIV =         727.1664     RIV_SYS1                         
                 RIV =           0.0000                   RIV =           0.0000     RIV_SYS2                         
                 RCH =      144643.3353                   RCH =        2492.9426     RCH_MSW                          

            TOTAL IN =      364679.2952              TOTAL IN =        3220.1090

          OUT:                                     OUT:
          ----                                     ----
              STO-SS =        3179.6051                STO-SS =         804.5865     STORAGE                          
                 DRN =        8218.2599                   DRN =          43.4426     DRN_SYS1                         
                 RIV =      327766.6236                   RIV =        2245.8755     RIV_SYS1                         
                 RIV =       22157.1932                   RIV =         126.2047     RIV_SYS2                         
                 RCH =        3357.8410                   RCH =           0.0000     RCH_MSW                          

           TOTAL OUT =      364679.5227             TOTAL OUT =        3220.1093

            IN - OUT =          -0.2274              IN - OUT =      -2.8201E-04

 PERCENT DISCREPANCY =          -0.00     PERCENT DISCREPANCY =          -0.00




         TIME SUMMARY AT END OF TIME STEP    1 IN STRESS PERIOD   84
                    SECONDS     MINUTES      HOURS       DAYS        YEARS
                    -----------------------------------------------------------
   TIME STEP LENGTH  86400.      1440.0      24.000      1.0000     2.73785E-03
 STRESS PERIOD TIME  86400.      1440.0      24.000      1.0000     2.73785E-03
         TOTAL TIME 7.25760E+06 1.20960E+05  2016.0      84.000     0.22998    


end timestep


start timestep kper="85" kstp="1" mode="normal"

 #Stressperiod Save Options

 BEGIN READING OUTPUT CONTROL FOR STRESS PERIOD 85
      ALL TIME STEPS WILL BE SAVED
      ALL TIME STEPS WILL BE SAVED

 END READING OUTPUT CONTROL FOR STRESS PERIOD 85


 PROCESSING STORAGE PERIOD DATA
 END PROCESSING STORAGE PERIOD DATA


 STRESS PERIOD 85 IS TRANSIENT


 REUSING DRNS FROM LAST STRESS PERIOD

 REUSING RIVS FROM LAST STRESS PERIOD

 REUSING RIVS FROM LAST STRESS PERIOD

 REUSING RCHS FROM LAST STRESS PERIOD
 UBDSV06 SAVING              DRN IN MODEL GWF_1            PACKAGE GWF_1           CONNECTED TO MODEL GWF_1            PACKAGE DRN_SYS1         ON UNIT   1018 AT TIME STEP      1, STRESS PERIOD     85
 UBDSV06 SAVING              RIV IN MODEL GWF_1            PACKAGE GWF_1           CONNECTED TO MODEL GWF_1            PACKAGE RIV_SYS1         ON UNIT   1018 AT TIME STEP      1, STRESS PERIOD     85
 UBDSV06 SAVING              RIV IN MODEL GWF_1            PACKAGE GWF_1           CONNECTED TO MODEL GWF_1            PACKAGE RIV_SYS2         ON UNIT   1018 AT TIME STEP      1, STRESS PERIOD     85
 UBDSV06 SAVING              RCH IN MODEL GWF_1            PACKAGE GWF_1           CONNECTED TO MODEL GWF_1            PACKAGE RCH_MSW          ON UNIT   1018 AT TIME STEP      1, STRESS PERIOD     85

 HEAD WILL BE SAVED ON UNIT 1017 AT END OF TIME STEP    1, STRESS PERIOD   85


  VOLUME BUDGET FOR ENTIRE MODEL AT END OF TIME STEP    1, STRESS PERIOD  85
  ---------------------------------------------------------------------------------------------------

     CUMULATIVE VOLUME      L**3       RATES FOR THIS TIME STEP      L**3/T          PACKAGE NAME    
     ------------------                 ------------------------                     ----------------

           IN:                                      IN:
           ---                                      ---
              STO-SS =      179072.7686                STO-SS =           0.0000     STORAGE                          
                 DRN =           0.0000                   DRN =           0.0000     DRN_SYS1                         
                 RIV =       41655.5139                   RIV =         692.3225     RIV_SYS1                         
                 RIV =           0.0000                   RIV =           0.0000     RIV_SYS2                         
                 RCH =      147305.5980                   RCH =        2662.2627     RCH_MSW                          

            TOTAL IN =      368033.8805              TOTAL IN =        3354.5853

          OUT:                                     OUT:
          ----                                     ----
              STO-SS =        4033.3657                STO-SS =         853.7606     STORAGE                          
                 DRN =        8263.1800                   DRN =          44.9201     DRN_SYS1                         
                 RIV =      330092.0936                   RIV =        2325.4700     RIV_SYS1                         
                 RIV =       22287.6292                   RIV =         130.4360     RIV_SYS2                         
                 RCH =        3357.8410                   RCH =           0.0000     RCH_MSW                          

           TOTAL OUT =      368034.1094             TOTAL OUT =        3354.5867

            IN - OUT =          -0.2289              IN - OUT =      -1.4613E-03

 PERCENT DISCREPANCY =          -0.00     PERCENT DISCREPANCY =          -0.00




         TIME SUMMARY AT END OF TIME STEP    1 IN STRESS PERIOD   85
                    SECONDS     MINUTES      HOURS       DAYS        YEARS
                    -----------------------------------------------------------
   TIME STEP LENGTH  86400.      1440.0      24.000      1.0000     2.73785E-03
 STRESS PERIOD TIME  86400.      1440.0      24.000      1.0000     2.73785E-03
         TOTAL TIME 7.34400E+06 1.22400E+05  2040.0      85.000     0.23272    


end timestep


start timestep kper="86" kstp="1" mode="normal"

 #Stressperiod Save Options

 BEGIN READING OUTPUT CONTROL FOR STRESS PERIOD 86
      ALL TIME STEPS WILL BE SAVED
      ALL TIME STEPS WILL BE SAVED

 END READING OUTPUT CONTROL FOR STRESS PERIOD 86


 PROCESSING STORAGE PERIOD DATA
 END PROCESSING STORAGE PERIOD DATA


 STRESS PERIOD 86 IS TRANSIENT


 REUSING DRNS FROM LAST STRESS PERIOD

 REUSING RIVS FROM LAST STRESS PERIOD

 REUSING RIVS FROM LAST STRESS PERIOD

 REUSING RCHS FROM LAST STRESS PERIOD
 UBDSV06 SAVING              DRN IN MODEL GWF_1            PACKAGE GWF_1           CONNECTED TO MODEL GWF_1            PACKAGE DRN_SYS1         ON UNIT   1018 AT TIME STEP      1, STRESS PERIOD     86
 UBDSV06 SAVING              RIV IN MODEL GWF_1            PACKAGE GWF_1           CONNECTED TO MODEL GWF_1            PACKAGE RIV_SYS1         ON UNIT   1018 AT TIME STEP      1, STRESS PERIOD     86
 UBDSV06 SAVING              RIV IN MODEL GWF_1            PACKAGE GWF_1           CONNECTED TO MODEL GWF_1            PACKAGE RIV_SYS2         ON UNIT   1018 AT TIME STEP      1, STRESS PERIOD     86
 UBDSV06 SAVING              RCH IN MODEL GWF_1            PACKAGE GWF_1           CONNECTED TO MODEL GWF_1            PACKAGE RCH_MSW          ON UNIT   1018 AT TIME STEP      1, STRESS PERIOD     86

 HEAD WILL BE SAVED ON UNIT 1017 AT END OF TIME STEP    1, STRESS PERIOD   86


  VOLUME BUDGET FOR ENTIRE MODEL AT END OF TIME STEP    1, STRESS PERIOD  86
  ---------------------------------------------------------------------------------------------------

     CUMULATIVE VOLUME      L**3       RATES FOR THIS TIME STEP      L**3/T          PACKAGE NAME    
     ------------------                 ------------------------                     ----------------

           IN:                                      IN:
           ---                                      ---
              STO-SS =      179072.7686                STO-SS =           0.0000     STORAGE                          
                 DRN =           0.0000                   DRN =           0.0000     DRN_SYS1                         
                 RIV =       42329.9494                   RIV =         674.4355     RIV_SYS1                         
                 RIV =           0.0000                   RIV =           0.0000     RIV_SYS2                         
                 RCH =      149890.4215                   RCH =        2584.8235     RCH_MSW                          

            TOTAL IN =      371293.1395              TOTAL IN =        3259.2590

          OUT:                                     OUT:
          ----                                     ----
              STO-SS =        4745.9215                STO-SS =         712.5558     STORAGE                          
                 DRN =        8309.4507                   DRN =          46.2707     DRN_SYS1                         
                 RIV =      332458.3068                   RIV =        2366.2132     RIV_SYS1                         
                 RIV =       22421.8475                   RIV =         134.2183     RIV_SYS2                         
                 RCH =        3357.8410                   RCH =           0.0000     RCH_MSW                          

           TOTAL OUT =      371293.3674             TOTAL OUT =        3259.2580

            IN - OUT =          -0.2279              IN - OUT =       9.9074E-04

 PERCENT DISCREPANCY =          -0.00     PERCENT DISCREPANCY =           0.00




         TIME SUMMARY AT END OF TIME STEP    1 IN STRESS PERIOD   86
                    SECONDS     MINUTES      HOURS       DAYS        YEARS
                    -----------------------------------------------------------
   TIME STEP LENGTH  86400.      1440.0      24.000      1.0000     2.73785E-03
 STRESS PERIOD TIME  86400.      1440.0      24.000      1.0000     2.73785E-03
         TOTAL TIME 7.43040E+06 1.23840E+05  2064.0      86.000     0.23546    


end timestep


start timestep kper="87" kstp="1" mode="normal"

 #Stressperiod Save Options

 BEGIN READING OUTPUT CONTROL FOR STRESS PERIOD 87
      ALL TIME STEPS WILL BE SAVED
      ALL TIME STEPS WILL BE SAVED

 END READING OUTPUT CONTROL FOR STRESS PERIOD 87


 PROCESSING STORAGE PERIOD DATA
 END PROCESSING STORAGE PERIOD DATA


 STRESS PERIOD 87 IS TRANSIENT


 REUSING DRNS FROM LAST STRESS PERIOD

 REUSING RIVS FROM LAST STRESS PERIOD

 REUSING RIVS FROM LAST STRESS PERIOD

 REUSING RCHS FROM LAST STRESS PERIOD
 UBDSV06 SAVING              DRN IN MODEL GWF_1            PACKAGE GWF_1           CONNECTED TO MODEL GWF_1            PACKAGE DRN_SYS1         ON UNIT   1018 AT TIME STEP      1, STRESS PERIOD     87
 UBDSV06 SAVING              RIV IN MODEL GWF_1            PACKAGE GWF_1           CONNECTED TO MODEL GWF_1            PACKAGE RIV_SYS1         ON UNIT   1018 AT TIME STEP      1, STRESS PERIOD     87
 UBDSV06 SAVING              RIV IN MODEL GWF_1            PACKAGE GWF_1           CONNECTED TO MODEL GWF_1            PACKAGE RIV_SYS2         ON UNIT   1018 AT TIME STEP      1, STRESS PERIOD     87
 UBDSV06 SAVING              RCH IN MODEL GWF_1            PACKAGE GWF_1           CONNECTED TO MODEL GWF_1            PACKAGE RCH_MSW          ON UNIT   1018 AT TIME STEP      1, STRESS PERIOD     87

 HEAD WILL BE SAVED ON UNIT 1017 AT END OF TIME STEP    1, STRESS PERIOD   87


  VOLUME BUDGET FOR ENTIRE MODEL AT END OF TIME STEP    1, STRESS PERIOD  87
  ---------------------------------------------------------------------------------------------------

     CUMULATIVE VOLUME      L**3       RATES FOR THIS TIME STEP      L**3/T          PACKAGE NAME    
     ------------------                 ------------------------                     ----------------

           IN:                                      IN:
           ---                                      ---
              STO-SS =      179074.5321                STO-SS =           1.7635     STORAGE                          
                 DRN =           0.0000                   DRN =           0.0000     DRN_SYS1                         
                 RIV =       42995.9575                   RIV =         666.0081     RIV_SYS1                         
                 RIV =           0.0000                   RIV =           0.0000     RIV_SYS2                         
                 RCH =      152364.1332                   RCH =        2473.7117     RCH_MSW                          

            TOTAL IN =      374434.6228              TOTAL IN =        3141.4833

          OUT:                                     OUT:
          ----                                     ----
              STO-SS =        5318.4002                STO-SS =         572.4787     STORAGE                          
                 DRN =        8356.8796                   DRN =          47.4289     DRN_SYS1                         
                 RIV =      334842.4997                   RIV =        2384.1930     RIV_SYS1                         
                 RIV =       22559.2265                   RIV =         137.3790     RIV_SYS2                         
                 RCH =        3357.8410                   RCH =           0.0000     RCH_MSW                          

           TOTAL OUT =      374434.8470             TOTAL OUT =        3141.4796

            IN - OUT =          -0.2242              IN - OUT =       3.6931E-03

 PERCENT DISCREPANCY =          -0.00     PERCENT DISCREPANCY =           0.00




         TIME SUMMARY AT END OF TIME STEP    1 IN STRESS PERIOD   87
                    SECONDS     MINUTES      HOURS       DAYS        YEARS
                    -----------------------------------------------------------
   TIME STEP LENGTH  86400.      1440.0      24.000      1.0000     2.73785E-03
 STRESS PERIOD TIME  86400.      1440.0      24.000      1.0000     2.73785E-03
         TOTAL TIME 7.51680E+06 1.25280E+05  2088.0      87.000     0.23819    


end timestep


start timestep kper="88" kstp="1" mode="normal"

 #Stressperiod Save Options

 BEGIN READING OUTPUT CONTROL FOR STRESS PERIOD 88
      ALL TIME STEPS WILL BE SAVED
      ALL TIME STEPS WILL BE SAVED

 END READING OUTPUT CONTROL FOR STRESS PERIOD 88


 PROCESSING STORAGE PERIOD DATA
 END PROCESSING STORAGE PERIOD DATA


 STRESS PERIOD 88 IS TRANSIENT


 REUSING DRNS FROM LAST STRESS PERIOD

 REUSING RIVS FROM LAST STRESS PERIOD

 REUSING RIVS FROM LAST STRESS PERIOD

 REUSING RCHS FROM LAST STRESS PERIOD
 UBDSV06 SAVING              DRN IN MODEL GWF_1            PACKAGE GWF_1           CONNECTED TO MODEL GWF_1            PACKAGE DRN_SYS1         ON UNIT   1018 AT TIME STEP      1, STRESS PERIOD     88
 UBDSV06 SAVING              RIV IN MODEL GWF_1            PACKAGE GWF_1           CONNECTED TO MODEL GWF_1            PACKAGE RIV_SYS1         ON UNIT   1018 AT TIME STEP      1, STRESS PERIOD     88
 UBDSV06 SAVING              RIV IN MODEL GWF_1            PACKAGE GWF_1           CONNECTED TO MODEL GWF_1            PACKAGE RIV_SYS2         ON UNIT   1018 AT TIME STEP      1, STRESS PERIOD     88
 UBDSV06 SAVING              RCH IN MODEL GWF_1            PACKAGE GWF_1           CONNECTED TO MODEL GWF_1            PACKAGE RCH_MSW          ON UNIT   1018 AT TIME STEP      1, STRESS PERIOD     88

 HEAD WILL BE SAVED ON UNIT 1017 AT END OF TIME STEP    1, STRESS PERIOD   88


  VOLUME BUDGET FOR ENTIRE MODEL AT END OF TIME STEP    1, STRESS PERIOD  88
  ---------------------------------------------------------------------------------------------------

     CUMULATIVE VOLUME      L**3       RATES FOR THIS TIME STEP      L**3/T          PACKAGE NAME    
     ------------------                 ------------------------                     ----------------

           IN:                                      IN:
           ---                                      ---
              STO-SS =      179083.5828                STO-SS =           9.0507     STORAGE                          
                 DRN =           0.0000                   DRN =           0.0000     DRN_SYS1                         
                 RIV =       43660.0153                   RIV =         664.0578     RIV_SYS1                         
                 RIV =           0.0000                   RIV =           0.0000     RIV_SYS2                         
                 RCH =      154699.6631                   RCH =        2335.5298     RCH_MSW                          

            TOTAL IN =      377443.2611              TOTAL IN =        3008.6383

          OUT:                                     OUT:
          ----                                     ----
              STO-SS =        5753.3261                STO-SS =         434.9259     STORAGE                          
                 DRN =        8405.2303                   DRN =          48.3507     DRN_SYS1                         
                 RIV =      337228.0401                   RIV =        2385.5404     RIV_SYS1                         
                 RIV =       22699.0415                   RIV =         139.8150     RIV_SYS2                         
                 RCH =        3357.8410                   RCH =           0.0000     RCH_MSW                          

           TOTAL OUT =      377443.4790             TOTAL OUT =        3008.6320

            IN - OUT =          -0.2178              IN - OUT =       6.3469E-03

 PERCENT DISCREPANCY =          -0.00     PERCENT DISCREPANCY =           0.00




         TIME SUMMARY AT END OF TIME STEP    1 IN STRESS PERIOD   88
                    SECONDS     MINUTES      HOURS       DAYS        YEARS
                    -----------------------------------------------------------
   TIME STEP LENGTH  86400.      1440.0      24.000      1.0000     2.73785E-03
 STRESS PERIOD TIME  86400.      1440.0      24.000      1.0000     2.73785E-03
         TOTAL TIME 7.60320E+06 1.26720E+05  2112.0      88.000     0.24093    


end timestep


start timestep kper="89" kstp="1" mode="normal"

 #Stressperiod Save Options

 BEGIN READING OUTPUT CONTROL FOR STRESS PERIOD 89
      ALL TIME STEPS WILL BE SAVED
      ALL TIME STEPS WILL BE SAVED

 END READING OUTPUT CONTROL FOR STRESS PERIOD 89


 PROCESSING STORAGE PERIOD DATA
 END PROCESSING STORAGE PERIOD DATA


 STRESS PERIOD 89 IS TRANSIENT


 REUSING DRNS FROM LAST STRESS PERIOD

 REUSING RIVS FROM LAST STRESS PERIOD

 REUSING RIVS FROM LAST STRESS PERIOD

 REUSING RCHS FROM LAST STRESS PERIOD
 UBDSV06 SAVING              DRN IN MODEL GWF_1            PACKAGE GWF_1           CONNECTED TO MODEL GWF_1            PACKAGE DRN_SYS1         ON UNIT   1018 AT TIME STEP      1, STRESS PERIOD     89
 UBDSV06 SAVING              RIV IN MODEL GWF_1            PACKAGE GWF_1           CONNECTED TO MODEL GWF_1            PACKAGE RIV_SYS1         ON UNIT   1018 AT TIME STEP      1, STRESS PERIOD     89
 UBDSV06 SAVING              RIV IN MODEL GWF_1            PACKAGE GWF_1           CONNECTED TO MODEL GWF_1            PACKAGE RIV_SYS2         ON UNIT   1018 AT TIME STEP      1, STRESS PERIOD     89
 UBDSV06 SAVING              RCH IN MODEL GWF_1            PACKAGE GWF_1           CONNECTED TO MODEL GWF_1            PACKAGE RCH_MSW          ON UNIT   1018 AT TIME STEP      1, STRESS PERIOD     89

 HEAD WILL BE SAVED ON UNIT 1017 AT END OF TIME STEP    1, STRESS PERIOD   89


  VOLUME BUDGET FOR ENTIRE MODEL AT END OF TIME STEP    1, STRESS PERIOD  89
  ---------------------------------------------------------------------------------------------------

     CUMULATIVE VOLUME      L**3       RATES FOR THIS TIME STEP      L**3/T          PACKAGE NAME    
     ------------------                 ------------------------                     ----------------

           IN:                                      IN:
           ---                                      ---
              STO-SS =      179106.4343                STO-SS =          22.8515     STORAGE                          
                 DRN =           0.0000                   DRN =           0.0000     DRN_SYS1                         
                 RIV =       44327.4477                   RIV =         667.4324     RIV_SYS1                         
                 RIV =           0.0000                   RIV =           0.0000     RIV_SYS2                         
                 RCH =      156878.3104                   RCH =        2178.6473     RCH_MSW                          

            TOTAL IN =      380312.1924              TOTAL IN =        2868.9313

          OUT:                                     OUT:
          ----                                     ----
              STO-SS =        6056.7645                STO-SS =         303.4384     STORAGE                          
                 DRN =        8454.2478                   DRN =          49.0175     DRN_SYS1                         
                 RIV =      339603.0118                   RIV =        2374.9717     RIV_SYS1                         
                 RIV =       22840.5374                   RIV =         141.4959     RIV_SYS2                         
                 RCH =        3357.8410                   RCH =           0.0000     RCH_MSW                          

           TOTAL OUT =      380312.4024             TOTAL OUT =        2868.9234

            IN - OUT =          -0.2100              IN - OUT =       7.8416E-03

 PERCENT DISCREPANCY =          -0.00     PERCENT DISCREPANCY =           0.00




         TIME SUMMARY AT END OF TIME STEP    1 IN STRESS PERIOD   89
                    SECONDS     MINUTES      HOURS       DAYS        YEARS
                    -----------------------------------------------------------
   TIME STEP LENGTH  86400.      1440.0      24.000      1.0000     2.73785E-03
 STRESS PERIOD TIME  86400.      1440.0      24.000      1.0000     2.73785E-03
         TOTAL TIME 7.68960E+06 1.28160E+05  2136.0      89.000     0.24367    


end timestep


start timestep kper="90" kstp="1" mode="normal"

 #Stressperiod Save Options

 BEGIN READING OUTPUT CONTROL FOR STRESS PERIOD 90
      ALL TIME STEPS WILL BE SAVED
      ALL TIME STEPS WILL BE SAVED

 END READING OUTPUT CONTROL FOR STRESS PERIOD 90


 PROCESSING STORAGE PERIOD DATA
 END PROCESSING STORAGE PERIOD DATA


 STRESS PERIOD 90 IS TRANSIENT


 REUSING DRNS FROM LAST STRESS PERIOD

 REUSING RIVS FROM LAST STRESS PERIOD

 REUSING RIVS FROM LAST STRESS PERIOD

 REUSING RCHS FROM LAST STRESS PERIOD
 UBDSV06 SAVING              DRN IN MODEL GWF_1            PACKAGE GWF_1           CONNECTED TO MODEL GWF_1            PACKAGE DRN_SYS1         ON UNIT   1018 AT TIME STEP      1, STRESS PERIOD     90
 UBDSV06 SAVING              RIV IN MODEL GWF_1            PACKAGE GWF_1           CONNECTED TO MODEL GWF_1            PACKAGE RIV_SYS1         ON UNIT   1018 AT TIME STEP      1, STRESS PERIOD     90
 UBDSV06 SAVING              RIV IN MODEL GWF_1            PACKAGE GWF_1           CONNECTED TO MODEL GWF_1            PACKAGE RIV_SYS2         ON UNIT   1018 AT TIME STEP      1, STRESS PERIOD     90
 UBDSV06 SAVING              RCH IN MODEL GWF_1            PACKAGE GWF_1           CONNECTED TO MODEL GWF_1            PACKAGE RCH_MSW          ON UNIT   1018 AT TIME STEP      1, STRESS PERIOD     90

 HEAD WILL BE SAVED ON UNIT 1017 AT END OF TIME STEP    1, STRESS PERIOD   90


  VOLUME BUDGET FOR ENTIRE MODEL AT END OF TIME STEP    1, STRESS PERIOD  90
  ---------------------------------------------------------------------------------------------------

     CUMULATIVE VOLUME      L**3       RATES FOR THIS TIME STEP      L**3/T          PACKAGE NAME    
     ------------------                 ------------------------                     ----------------

           IN:                                      IN:
           ---                                      ---
              STO-SS =      179137.7928                STO-SS =          31.3584     STORAGE                          
                 DRN =           0.0000                   DRN =           0.0000     DRN_SYS1                         
                 RIV =       44999.8048                   RIV =         672.3571     RIV_SYS1                         
                 RIV =           0.0000                   RIV =           0.0000     RIV_SYS2                         
                 RCH =      158949.4444                   RCH =        2071.1340     RCH_MSW                          

            TOTAL IN =      383087.0420              TOTAL IN =        2774.8496

          OUT:                                     OUT:
          ----                                     ----
              STO-SS =        6277.9672                STO-SS =         221.2027     STORAGE                          
                 DRN =        8503.7606                   DRN =          49.5128     DRN_SYS1                         
                 RIV =      341964.4580                   RIV =        2361.4462     RIV_SYS1                         
                 RIV =       22983.2166                   RIV =         142.6792     RIV_SYS2                         
                 RCH =        3357.8410                   RCH =           0.0000     RCH_MSW                          

           TOTAL OUT =      383087.2434             TOTAL OUT =        2774.8410

            IN - OUT =          -0.2014              IN - OUT =       8.6356E-03

 PERCENT DISCREPANCY =          -0.00     PERCENT DISCREPANCY =           0.00




         TIME SUMMARY AT END OF TIME STEP    1 IN STRESS PERIOD   90
                    SECONDS     MINUTES      HOURS       DAYS        YEARS
                    -----------------------------------------------------------
   TIME STEP LENGTH  86400.      1440.0      24.000      1.0000     2.73785E-03
 STRESS PERIOD TIME  86400.      1440.0      24.000      1.0000     2.73785E-03
         TOTAL TIME 7.77600E+06 1.29600E+05  2160.0      90.000     0.24641    


end timestep


start timestep kper="91" kstp="1" mode="normal"

 #Stressperiod Save Options

 BEGIN READING OUTPUT CONTROL FOR STRESS PERIOD 91
      ALL TIME STEPS WILL BE SAVED
      ALL TIME STEPS WILL BE SAVED

 END READING OUTPUT CONTROL FOR STRESS PERIOD 91


 PROCESSING STORAGE PERIOD DATA
 END PROCESSING STORAGE PERIOD DATA


 STRESS PERIOD 91 IS TRANSIENT


 REUSING DRNS FROM LAST STRESS PERIOD

 REUSING RIVS FROM LAST STRESS PERIOD

 REUSING RIVS FROM LAST STRESS PERIOD

 REUSING RCHS FROM LAST STRESS PERIOD
 UBDSV06 SAVING              DRN IN MODEL GWF_1            PACKAGE GWF_1           CONNECTED TO MODEL GWF_1            PACKAGE DRN_SYS1         ON UNIT   1018 AT TIME STEP      1, STRESS PERIOD     91
 UBDSV06 SAVING              RIV IN MODEL GWF_1            PACKAGE GWF_1           CONNECTED TO MODEL GWF_1            PACKAGE RIV_SYS1         ON UNIT   1018 AT TIME STEP      1, STRESS PERIOD     91
 UBDSV06 SAVING              RIV IN MODEL GWF_1            PACKAGE GWF_1           CONNECTED TO MODEL GWF_1            PACKAGE RIV_SYS2         ON UNIT   1018 AT TIME STEP      1, STRESS PERIOD     91
 UBDSV06 SAVING              RCH IN MODEL GWF_1            PACKAGE GWF_1           CONNECTED TO MODEL GWF_1            PACKAGE RCH_MSW          ON UNIT   1018 AT TIME STEP      1, STRESS PERIOD     91

 HEAD WILL BE SAVED ON UNIT 1017 AT END OF TIME STEP    1, STRESS PERIOD   91


  VOLUME BUDGET FOR ENTIRE MODEL AT END OF TIME STEP    1, STRESS PERIOD  91
  ---------------------------------------------------------------------------------------------------

     CUMULATIVE VOLUME      L**3       RATES FOR THIS TIME STEP      L**3/T          PACKAGE NAME    
     ------------------                 ------------------------                     ----------------

           IN:                                      IN:
           ---                                      ---
              STO-SS =      179138.2147                STO-SS =           0.4219     STORAGE                          
                 DRN =           0.0000                   DRN =           0.0000     DRN_SYS1                         
                 RIV =       45669.2722                   RIV =         669.4675     RIV_SYS1                         
                 RIV =           0.0000                   RIV =           0.0000     RIV_SYS2                         
                 RCH =      161111.0038                   RCH =        2161.5594     RCH_MSW                          

            TOTAL IN =      385918.4908              TOTAL IN =        2831.4488

          OUT:                                     OUT:
          ----                                     ----
              STO-SS =        6546.4088                STO-SS =         268.4416     STORAGE                          
                 DRN =        8553.8317                   DRN =          50.0712     DRN_SYS1                         
                 RIV =      344333.3283                   RIV =        2368.8703     RIV_SYS1                         
                 RIV =       23127.2762                   RIV =         144.0596     RIV_SYS2                         
                 RCH =        3357.8410                   RCH =           0.0000     RCH_MSW                          

           TOTAL OUT =      385918.6861             TOTAL OUT =        2831.4427

            IN - OUT =          -0.1953              IN - OUT =       6.0590E-03

 PERCENT DISCREPANCY =          -0.00     PERCENT DISCREPANCY =           0.00




         TIME SUMMARY AT END OF TIME STEP    1 IN STRESS PERIOD   91
                    SECONDS     MINUTES      HOURS       DAYS        YEARS
                    -----------------------------------------------------------
   TIME STEP LENGTH  86400.      1440.0      24.000      1.0000     2.73785E-03
 STRESS PERIOD TIME  86400.      1440.0      24.000      1.0000     2.73785E-03
         TOTAL TIME 7.86240E+06 1.31040E+05  2184.0      91.000     0.24914    


end timestep


start timestep kper="92" kstp="1" mode="normal"

 #Stressperiod Save Options

 BEGIN READING OUTPUT CONTROL FOR STRESS PERIOD 92
      ALL TIME STEPS WILL BE SAVED
      ALL TIME STEPS WILL BE SAVED

 END READING OUTPUT CONTROL FOR STRESS PERIOD 92


 PROCESSING STORAGE PERIOD DATA
 END PROCESSING STORAGE PERIOD DATA


 STRESS PERIOD 92 IS TRANSIENT


 REUSING DRNS FROM LAST STRESS PERIOD

 REUSING RIVS FROM LAST STRESS PERIOD

 REUSING RIVS FROM LAST STRESS PERIOD

 REUSING RCHS FROM LAST STRESS PERIOD
 UBDSV06 SAVING              DRN IN MODEL GWF_1            PACKAGE GWF_1           CONNECTED TO MODEL GWF_1            PACKAGE DRN_SYS1         ON UNIT   1018 AT TIME STEP      1, STRESS PERIOD     92
 UBDSV06 SAVING              RIV IN MODEL GWF_1            PACKAGE GWF_1           CONNECTED TO MODEL GWF_1            PACKAGE RIV_SYS1         ON UNIT   1018 AT TIME STEP      1, STRESS PERIOD     92
 UBDSV06 SAVING              RIV IN MODEL GWF_1            PACKAGE GWF_1           CONNECTED TO MODEL GWF_1            PACKAGE RIV_SYS2         ON UNIT   1018 AT TIME STEP      1, STRESS PERIOD     92
 UBDSV06 SAVING              RCH IN MODEL GWF_1            PACKAGE GWF_1           CONNECTED TO MODEL GWF_1            PACKAGE RCH_MSW          ON UNIT   1018 AT TIME STEP      1, STRESS PERIOD     92

 HEAD WILL BE SAVED ON UNIT 1017 AT END OF TIME STEP    1, STRESS PERIOD   92


  VOLUME BUDGET FOR ENTIRE MODEL AT END OF TIME STEP    1, STRESS PERIOD  92
  ---------------------------------------------------------------------------------------------------

     CUMULATIVE VOLUME      L**3       RATES FOR THIS TIME STEP      L**3/T          PACKAGE NAME    
     ------------------                 ------------------------                     ----------------

           IN:                                      IN:
           ---                                      ---
              STO-SS =      179138.2147                STO-SS =           0.0000     STORAGE                          
                 DRN =           0.0000                   DRN =           0.0000     DRN_SYS1                         
                 RIV =       46331.6971                   RIV =         662.4248     RIV_SYS1                         
                 RIV =           0.0000                   RIV =           0.0000     RIV_SYS2                         
                 RCH =      163363.8680                   RCH =        2252.8642     RCH_MSW                          

            TOTAL IN =      388833.7797              TOTAL IN =        2915.2890

          OUT:                                     OUT:
          ----                                     ----
              STO-SS =        6877.8274                STO-SS =         331.4186     STORAGE                          
                 DRN =        8604.5470                   DRN =          50.7153     DRN_SYS1                         
                 RIV =      346720.7817                   RIV =        2387.4534     RIV_SYS1                         
                 RIV =       23272.9739                   RIV =         145.6977     RIV_SYS2                         
                 RCH =        3357.8410                   RCH =           0.0000     RCH_MSW                          

           TOTAL OUT =      388833.9711             TOTAL OUT =        2915.2850

            IN - OUT =          -0.1913              IN - OUT =       3.9835E-03

 PERCENT DISCREPANCY =          -0.00     PERCENT DISCREPANCY =           0.00




         TIME SUMMARY AT END OF TIME STEP    1 IN STRESS PERIOD   92
                    SECONDS     MINUTES      HOURS       DAYS        YEARS
                    -----------------------------------------------------------
   TIME STEP LENGTH  86400.      1440.0      24.000      1.0000     2.73785E-03
 STRESS PERIOD TIME  86400.      1440.0      24.000      1.0000     2.73785E-03
         TOTAL TIME 7.94880E+06 1.32480E+05  2208.0      92.000     0.25188    


end timestep


start timestep kper="93" kstp="1" mode="normal"

 #Stressperiod Save Options

 BEGIN READING OUTPUT CONTROL FOR STRESS PERIOD 93
      ALL TIME STEPS WILL BE SAVED
      ALL TIME STEPS WILL BE SAVED

 END READING OUTPUT CONTROL FOR STRESS PERIOD 93


 PROCESSING STORAGE PERIOD DATA
 END PROCESSING STORAGE PERIOD DATA


 STRESS PERIOD 93 IS TRANSIENT


 REUSING DRNS FROM LAST STRESS PERIOD

 REUSING RIVS FROM LAST STRESS PERIOD

 REUSING RIVS FROM LAST STRESS PERIOD

 REUSING RCHS FROM LAST STRESS PERIOD
 UBDSV06 SAVING              DRN IN MODEL GWF_1            PACKAGE GWF_1           CONNECTED TO MODEL GWF_1            PACKAGE DRN_SYS1         ON UNIT   1018 AT TIME STEP      1, STRESS PERIOD     93
 UBDSV06 SAVING              RIV IN MODEL GWF_1            PACKAGE GWF_1           CONNECTED TO MODEL GWF_1            PACKAGE RIV_SYS1         ON UNIT   1018 AT TIME STEP      1, STRESS PERIOD     93
 UBDSV06 SAVING              RIV IN MODEL GWF_1            PACKAGE GWF_1           CONNECTED TO MODEL GWF_1            PACKAGE RIV_SYS2         ON UNIT   1018 AT TIME STEP      1, STRESS PERIOD     93
 UBDSV06 SAVING              RCH IN MODEL GWF_1            PACKAGE GWF_1           CONNECTED TO MODEL GWF_1            PACKAGE RCH_MSW          ON UNIT   1018 AT TIME STEP      1, STRESS PERIOD     93

 HEAD WILL BE SAVED ON UNIT 1017 AT END OF TIME STEP    1, STRESS PERIOD   93


  VOLUME BUDGET FOR ENTIRE MODEL AT END OF TIME STEP    1, STRESS PERIOD  93
  ---------------------------------------------------------------------------------------------------

     CUMULATIVE VOLUME      L**3       RATES FOR THIS TIME STEP      L**3/T          PACKAGE NAME    
     ------------------                 ------------------------                     ----------------

           IN:                                      IN:
           ---                                      ---
              STO-SS =      179138.2147                STO-SS =           0.0000     STORAGE                          
                 DRN =           0.0000                   DRN =           0.0000     DRN_SYS1                         
                 RIV =       46989.7523                   RIV =         658.0552     RIV_SYS1                         
                 RIV =           0.0000                   RIV =           0.0000     RIV_SYS2                         
                 RCH =      165598.1337                   RCH =        2234.2657     RCH_MSW                          

            TOTAL IN =      391726.1007              TOTAL IN =        2892.3209

          OUT:                                     OUT:
          ----                                     ----
              STO-SS =        7172.2115                STO-SS =         294.3840     STORAGE                          
                 DRN =        8655.8553                   DRN =          51.3083     DRN_SYS1                         
                 RIV =      349120.2179                   RIV =        2399.4362     RIV_SYS1                         
                 RIV =       23420.1630                   RIV =         147.1891     RIV_SYS2                         
                 RCH =        3357.8410                   RCH =           0.0000     RCH_MSW                          

           TOTAL OUT =      391726.2886             TOTAL OUT =        2892.3176

            IN - OUT =          -0.1880              IN - OUT =       3.3565E-03

 PERCENT DISCREPANCY =          -0.00     PERCENT DISCREPANCY =           0.00




         TIME SUMMARY AT END OF TIME STEP    1 IN STRESS PERIOD   93
                    SECONDS     MINUTES      HOURS       DAYS        YEARS
                    -----------------------------------------------------------
   TIME STEP LENGTH  86400.      1440.0      24.000      1.0000     2.73785E-03
 STRESS PERIOD TIME  86400.      1440.0      24.000      1.0000     2.73785E-03
         TOTAL TIME 8.03520E+06 1.33920E+05  2232.0      93.000     0.25462    


end timestep


start timestep kper="94" kstp="1" mode="normal"

 #Stressperiod Save Options

 BEGIN READING OUTPUT CONTROL FOR STRESS PERIOD 94
      ALL TIME STEPS WILL BE SAVED
      ALL TIME STEPS WILL BE SAVED

 END READING OUTPUT CONTROL FOR STRESS PERIOD 94


 PROCESSING STORAGE PERIOD DATA
 END PROCESSING STORAGE PERIOD DATA


 STRESS PERIOD 94 IS TRANSIENT


 REUSING DRNS FROM LAST STRESS PERIOD

 REUSING RIVS FROM LAST STRESS PERIOD

 REUSING RIVS FROM LAST STRESS PERIOD

 REUSING RCHS FROM LAST STRESS PERIOD
 UBDSV06 SAVING              DRN IN MODEL GWF_1            PACKAGE GWF_1           CONNECTED TO MODEL GWF_1            PACKAGE DRN_SYS1         ON UNIT   1018 AT TIME STEP      1, STRESS PERIOD     94
 UBDSV06 SAVING              RIV IN MODEL GWF_1            PACKAGE GWF_1           CONNECTED TO MODEL GWF_1            PACKAGE RIV_SYS1         ON UNIT   1018 AT TIME STEP      1, STRESS PERIOD     94
 UBDSV06 SAVING              RIV IN MODEL GWF_1            PACKAGE GWF_1           CONNECTED TO MODEL GWF_1            PACKAGE RIV_SYS2         ON UNIT   1018 AT TIME STEP      1, STRESS PERIOD     94
 UBDSV06 SAVING              RCH IN MODEL GWF_1            PACKAGE GWF_1           CONNECTED TO MODEL GWF_1            PACKAGE RCH_MSW          ON UNIT   1018 AT TIME STEP      1, STRESS PERIOD     94

 HEAD WILL BE SAVED ON UNIT 1017 AT END OF TIME STEP    1, STRESS PERIOD   94


  VOLUME BUDGET FOR ENTIRE MODEL AT END OF TIME STEP    1, STRESS PERIOD  94
  ---------------------------------------------------------------------------------------------------

     CUMULATIVE VOLUME      L**3       RATES FOR THIS TIME STEP      L**3/T          PACKAGE NAME    
     ------------------                 ------------------------                     ----------------

           IN:                                      IN:
           ---                                      ---
              STO-SS =      179138.2147                STO-SS =           0.0000     STORAGE                          
                 DRN =           0.0000                   DRN =           0.0000     DRN_SYS1                         
                 RIV =       47567.4005                   RIV =         577.6482     RIV_SYS1                         
                 RIV =           0.0000                   RIV =           0.0000     RIV_SYS2                         
                 RCH =      169499.8025                   RCH =        3901.6688     RCH_MSW                          

            TOTAL IN =      396205.4176              TOTAL IN =        4479.3170

          OUT:                                     OUT:
          ----                                     ----
              STO-SS =        8811.0546                STO-SS =        1638.8432     STORAGE                          
                 DRN =        8709.9708                   DRN =          54.1155     DRN_SYS1                         
                 RIV =      351751.5096                   RIV =        2631.2917     RIV_SYS1                         
                 RIV =       23575.2302                   RIV =         155.0672     RIV_SYS2                         
                 RCH =        3357.8410                   RCH =           0.0000     RCH_MSW                          

           TOTAL OUT =      396205.6063             TOTAL OUT =        4479.3176

            IN - OUT =          -0.1886              IN - OUT =      -6.5936E-04

 PERCENT DISCREPANCY =          -0.00     PERCENT DISCREPANCY =          -0.00




         TIME SUMMARY AT END OF TIME STEP    1 IN STRESS PERIOD   94
                    SECONDS     MINUTES      HOURS       DAYS        YEARS
                    -----------------------------------------------------------
   TIME STEP LENGTH  86400.      1440.0      24.000      1.0000     2.73785E-03
 STRESS PERIOD TIME  86400.      1440.0      24.000      1.0000     2.73785E-03
         TOTAL TIME 8.12160E+06 1.35360E+05  2256.0      94.000     0.25736    


end timestep


start timestep kper="95" kstp="1" mode="normal"

 #Stressperiod Save Options

 BEGIN READING OUTPUT CONTROL FOR STRESS PERIOD 95
      ALL TIME STEPS WILL BE SAVED
      ALL TIME STEPS WILL BE SAVED

 END READING OUTPUT CONTROL FOR STRESS PERIOD 95


 PROCESSING STORAGE PERIOD DATA
 END PROCESSING STORAGE PERIOD DATA


 STRESS PERIOD 95 IS TRANSIENT


 REUSING DRNS FROM LAST STRESS PERIOD

 REUSING RIVS FROM LAST STRESS PERIOD

 REUSING RIVS FROM LAST STRESS PERIOD

 REUSING RCHS FROM LAST STRESS PERIOD
 UBDSV06 SAVING              DRN IN MODEL GWF_1            PACKAGE GWF_1           CONNECTED TO MODEL GWF_1            PACKAGE DRN_SYS1         ON UNIT   1018 AT TIME STEP      1, STRESS PERIOD     95
 UBDSV06 SAVING              RIV IN MODEL GWF_1            PACKAGE GWF_1           CONNECTED TO MODEL GWF_1            PACKAGE RIV_SYS1         ON UNIT   1018 AT TIME STEP      1, STRESS PERIOD     95
 UBDSV06 SAVING              RIV IN MODEL GWF_1            PACKAGE GWF_1           CONNECTED TO MODEL GWF_1            PACKAGE RIV_SYS2         ON UNIT   1018 AT TIME STEP      1, STRESS PERIOD     95
 UBDSV06 SAVING              RCH IN MODEL GWF_1            PACKAGE GWF_1           CONNECTED TO MODEL GWF_1            PACKAGE RCH_MSW          ON UNIT   1018 AT TIME STEP      1, STRESS PERIOD     95

 HEAD WILL BE SAVED ON UNIT 1017 AT END OF TIME STEP    1, STRESS PERIOD   95


  VOLUME BUDGET FOR ENTIRE MODEL AT END OF TIME STEP    1, STRESS PERIOD  95
  ---------------------------------------------------------------------------------------------------

     CUMULATIVE VOLUME      L**3       RATES FOR THIS TIME STEP      L**3/T          PACKAGE NAME    
     ------------------                 ------------------------                     ----------------

           IN:                                      IN:
           ---                                      ---
              STO-SS =      179138.2147                STO-SS =           0.0000     STORAGE                          
                 DRN =           0.0000                   DRN =           0.0000     DRN_SYS1                         
                 RIV =       48090.3481                   RIV =         522.9477     RIV_SYS1                         
                 RIV =           0.0000                   RIV =           0.0000     RIV_SYS2                         
                 RCH =      173594.7927                   RCH =        4094.9902     RCH_MSW                          

            TOTAL IN =      400823.3555              TOTAL IN =        4617.9379

          OUT:                                     OUT:
          ----                                     ----
              STO-SS =       10419.2513                STO-SS =        1608.1966     STORAGE                          
                 DRN =        8767.1460                   DRN =          57.1752     DRN_SYS1                         
                 RIV =      354540.5272                   RIV =        2789.0175     RIV_SYS1                         
                 RIV =       23738.7755                   RIV =         163.5452     RIV_SYS2                         
                 RCH =        3357.8410                   RCH =           0.0000     RCH_MSW                          

           TOTAL OUT =      400823.5408             TOTAL OUT =        4617.9346

            IN - OUT =          -0.1853              IN - OUT =       3.2987E-03

 PERCENT DISCREPANCY =          -0.00     PERCENT DISCREPANCY =           0.00




         TIME SUMMARY AT END OF TIME STEP    1 IN STRESS PERIOD   95
                    SECONDS     MINUTES      HOURS       DAYS        YEARS
                    -----------------------------------------------------------
   TIME STEP LENGTH  86400.      1440.0      24.000      1.0000     2.73785E-03
 STRESS PERIOD TIME  86400.      1440.0      24.000      1.0000     2.73785E-03
         TOTAL TIME 8.20800E+06 1.36800E+05  2280.0      95.000     0.26010    


end timestep


start timestep kper="96" kstp="1" mode="normal"

 #Stressperiod Save Options

 BEGIN READING OUTPUT CONTROL FOR STRESS PERIOD 96
      ALL TIME STEPS WILL BE SAVED
      ALL TIME STEPS WILL BE SAVED

 END READING OUTPUT CONTROL FOR STRESS PERIOD 96


 PROCESSING STORAGE PERIOD DATA
 END PROCESSING STORAGE PERIOD DATA


 STRESS PERIOD 96 IS TRANSIENT


 REUSING DRNS FROM LAST STRESS PERIOD

 REUSING RIVS FROM LAST STRESS PERIOD

 REUSING RIVS FROM LAST STRESS PERIOD

 REUSING RCHS FROM LAST STRESS PERIOD
 UBDSV06 SAVING              DRN IN MODEL GWF_1            PACKAGE GWF_1           CONNECTED TO MODEL GWF_1            PACKAGE DRN_SYS1         ON UNIT   1018 AT TIME STEP      1, STRESS PERIOD     96
 UBDSV06 SAVING              RIV IN MODEL GWF_1            PACKAGE GWF_1           CONNECTED TO MODEL GWF_1            PACKAGE RIV_SYS1         ON UNIT   1018 AT TIME STEP      1, STRESS PERIOD     96
 UBDSV06 SAVING              RIV IN MODEL GWF_1            PACKAGE GWF_1           CONNECTED TO MODEL GWF_1            PACKAGE RIV_SYS2         ON UNIT   1018 AT TIME STEP      1, STRESS PERIOD     96
 UBDSV06 SAVING              RCH IN MODEL GWF_1            PACKAGE GWF_1           CONNECTED TO MODEL GWF_1            PACKAGE RCH_MSW          ON UNIT   1018 AT TIME STEP      1, STRESS PERIOD     96

 HEAD WILL BE SAVED ON UNIT 1017 AT END OF TIME STEP    1, STRESS PERIOD   96


  VOLUME BUDGET FOR ENTIRE MODEL AT END OF TIME STEP    1, STRESS PERIOD  96
  ---------------------------------------------------------------------------------------------------

     CUMULATIVE VOLUME      L**3       RATES FOR THIS TIME STEP      L**3/T          PACKAGE NAME    
     ------------------                 ------------------------                     ----------------

           IN:                                      IN:
           ---                                      ---
              STO-SS =      179138.2147                STO-SS =           0.0000     STORAGE                          
                 DRN =           0.0000                   DRN =           0.0000     DRN_SYS1                         
                 RIV =       48586.3230                   RIV =         495.9748     RIV_SYS1                         
                 RIV =           0.0000                   RIV =           0.0000     RIV_SYS2                         
                 RCH =      177459.9205                   RCH =        3865.1278     RCH_MSW                          

            TOTAL IN =      405184.4582              TOTAL IN =        4361.1027

          OUT:                                     OUT:
          ----                                     ----
              STO-SS =       11687.7727                STO-SS =        1268.5214     STORAGE                          
                 DRN =        8826.9490                   DRN =          59.8030     DRN_SYS1                         
                 RIV =      357402.6585                   RIV =        2862.1313     RIV_SYS1                         
                 RIV =       23909.4239                   RIV =         170.6484     RIV_SYS2                         
                 RCH =        3357.8410                   RCH =           0.0000     RCH_MSW                          

           TOTAL OUT =      405184.6450             TOTAL OUT =        4361.1042

            IN - OUT =          -0.1868              IN - OUT =      -1.5027E-03

 PERCENT DISCREPANCY =          -0.00     PERCENT DISCREPANCY =          -0.00




         TIME SUMMARY AT END OF TIME STEP    1 IN STRESS PERIOD   96
                    SECONDS     MINUTES      HOURS       DAYS        YEARS
                    -----------------------------------------------------------
   TIME STEP LENGTH  86400.      1440.0      24.000      1.0000     2.73785E-03
 STRESS PERIOD TIME  86400.      1440.0      24.000      1.0000     2.73785E-03
         TOTAL TIME 8.29440E+06 1.38240E+05  2304.0      96.000     0.26283    


end timestep


start timestep kper="97" kstp="1" mode="normal"

 #Stressperiod Save Options

 BEGIN READING OUTPUT CONTROL FOR STRESS PERIOD 97
      ALL TIME STEPS WILL BE SAVED
      ALL TIME STEPS WILL BE SAVED

 END READING OUTPUT CONTROL FOR STRESS PERIOD 97


 PROCESSING STORAGE PERIOD DATA
 END PROCESSING STORAGE PERIOD DATA


 STRESS PERIOD 97 IS TRANSIENT


 REUSING DRNS FROM LAST STRESS PERIOD

 REUSING RIVS FROM LAST STRESS PERIOD

 REUSING RIVS FROM LAST STRESS PERIOD

 REUSING RCHS FROM LAST STRESS PERIOD
 UBDSV06 SAVING              DRN IN MODEL GWF_1            PACKAGE GWF_1           CONNECTED TO MODEL GWF_1            PACKAGE DRN_SYS1         ON UNIT   1018 AT TIME STEP      1, STRESS PERIOD     97
 UBDSV06 SAVING              RIV IN MODEL GWF_1            PACKAGE GWF_1           CONNECTED TO MODEL GWF_1            PACKAGE RIV_SYS1         ON UNIT   1018 AT TIME STEP      1, STRESS PERIOD     97
 UBDSV06 SAVING              RIV IN MODEL GWF_1            PACKAGE GWF_1           CONNECTED TO MODEL GWF_1            PACKAGE RIV_SYS2         ON UNIT   1018 AT TIME STEP      1, STRESS PERIOD     97
 UBDSV06 SAVING              RCH IN MODEL GWF_1            PACKAGE GWF_1           CONNECTED TO MODEL GWF_1            PACKAGE RCH_MSW          ON UNIT   1018 AT TIME STEP      1, STRESS PERIOD     97

 HEAD WILL BE SAVED ON UNIT 1017 AT END OF TIME STEP    1, STRESS PERIOD   97


  VOLUME BUDGET FOR ENTIRE MODEL AT END OF TIME STEP    1, STRESS PERIOD  97
  ---------------------------------------------------------------------------------------------------

     CUMULATIVE VOLUME      L**3       RATES FOR THIS TIME STEP      L**3/T          PACKAGE NAME    
     ------------------                 ------------------------                     ----------------

           IN:                                      IN:
           ---                                      ---
              STO-SS =      179142.3974                STO-SS =           4.1827     STORAGE                          
                 DRN =           0.0000                   DRN =           0.0000     DRN_SYS1                         
                 RIV =       49072.1583                   RIV =         485.8354     RIV_SYS1                         
                 RIV =           0.0000                   RIV =           0.0000     RIV_SYS2                         
                 RCH =      181025.9415                   RCH =        3566.0210     RCH_MSW                          

            TOTAL IN =      409240.4972              TOTAL IN =        4056.0390

          OUT:                                     OUT:
          ----                                     ----
              STO-SS =       12620.3815                STO-SS =         932.6088     STORAGE                          
                 DRN =        8888.8040                   DRN =          61.8549     DRN_SYS1                         
                 RIV =      360288.2096                   RIV =        2885.5511     RIV_SYS1                         
                 RIV =       24085.4464                   RIV =         176.0226     RIV_SYS2                         
                 RCH =        3357.8410                   RCH =           0.0000     RCH_MSW                          

           TOTAL OUT =      409240.6825             TOTAL OUT =        4056.0374

            IN - OUT =          -0.1853              IN - OUT =       1.5721E-03

 PERCENT DISCREPANCY =          -0.00     PERCENT DISCREPANCY =           0.00




         TIME SUMMARY AT END OF TIME STEP    1 IN STRESS PERIOD   97
                    SECONDS     MINUTES      HOURS       DAYS        YEARS
                    -----------------------------------------------------------
   TIME STEP LENGTH  86400.      1440.0      24.000      1.0000     2.73785E-03
 STRESS PERIOD TIME  86400.      1440.0      24.000      1.0000     2.73785E-03
         TOTAL TIME 8.38080E+06 1.39680E+05  2328.0      97.000     0.26557    


end timestep


start timestep kper="98" kstp="1" mode="normal"

 #Stressperiod Save Options

 BEGIN READING OUTPUT CONTROL FOR STRESS PERIOD 98
      ALL TIME STEPS WILL BE SAVED
      ALL TIME STEPS WILL BE SAVED

 END READING OUTPUT CONTROL FOR STRESS PERIOD 98


 PROCESSING STORAGE PERIOD DATA
 END PROCESSING STORAGE PERIOD DATA


 STRESS PERIOD 98 IS TRANSIENT


 REUSING DRNS FROM LAST STRESS PERIOD

 REUSING RIVS FROM LAST STRESS PERIOD

 REUSING RIVS FROM LAST STRESS PERIOD

 REUSING RCHS FROM LAST STRESS PERIOD
 UBDSV06 SAVING              DRN IN MODEL GWF_1            PACKAGE GWF_1           CONNECTED TO MODEL GWF_1            PACKAGE DRN_SYS1         ON UNIT   1018 AT TIME STEP      1, STRESS PERIOD     98
 UBDSV06 SAVING              RIV IN MODEL GWF_1            PACKAGE GWF_1           CONNECTED TO MODEL GWF_1            PACKAGE RIV_SYS1         ON UNIT   1018 AT TIME STEP      1, STRESS PERIOD     98
 UBDSV06 SAVING              RIV IN MODEL GWF_1            PACKAGE GWF_1           CONNECTED TO MODEL GWF_1            PACKAGE RIV_SYS2         ON UNIT   1018 AT TIME STEP      1, STRESS PERIOD     98
 UBDSV06 SAVING              RCH IN MODEL GWF_1            PACKAGE GWF_1           CONNECTED TO MODEL GWF_1            PACKAGE RCH_MSW          ON UNIT   1018 AT TIME STEP      1, STRESS PERIOD     98

 HEAD WILL BE SAVED ON UNIT 1017 AT END OF TIME STEP    1, STRESS PERIOD   98


  VOLUME BUDGET FOR ENTIRE MODEL AT END OF TIME STEP    1, STRESS PERIOD  98
  ---------------------------------------------------------------------------------------------------

     CUMULATIVE VOLUME      L**3       RATES FOR THIS TIME STEP      L**3/T          PACKAGE NAME    
     ------------------                 ------------------------                     ----------------

           IN:                                      IN:
           ---                                      ---
              STO-SS =      179148.9944                STO-SS =           6.5970     STORAGE                          
                 DRN =           0.0000                   DRN =           0.0000     DRN_SYS1                         
                 RIV =       49552.2698                   RIV =         480.1115     RIV_SYS1                         
                 RIV =           0.0000                   RIV =           0.0000     RIV_SYS2                         
                 RCH =      184440.5669                   RCH =        3414.6254     RCH_MSW                          

            TOTAL IN =      413141.8310              TOTAL IN =        3901.3338

          OUT:                                     OUT:
          ----                                     ----
              STO-SS =       13379.7348                STO-SS =         759.3533     STORAGE                          
                 DRN =        8952.3728                   DRN =          63.5689     DRN_SYS1                         
                 RIV =      363186.2151                   RIV =        2898.0056     RIV_SYS1                         
                 RIV =       24265.8387                   RIV =         180.3922     RIV_SYS2                         
                 RCH =        3357.8410                   RCH =           0.0000     RCH_MSW                          

           TOTAL OUT =      413142.0024             TOTAL OUT =        3901.3199

            IN - OUT =          -0.1713              IN - OUT =       1.3919E-02

 PERCENT DISCREPANCY =          -0.00     PERCENT DISCREPANCY =           0.00




         TIME SUMMARY AT END OF TIME STEP    1 IN STRESS PERIOD   98
                    SECONDS     MINUTES      HOURS       DAYS        YEARS
                    -----------------------------------------------------------
   TIME STEP LENGTH  86400.      1440.0      24.000      1.0000     2.73785E-03
 STRESS PERIOD TIME  86400.      1440.0      24.000      1.0000     2.73785E-03
         TOTAL TIME 8.46720E+06 1.41120E+05  2352.0      98.000     0.26831    


end timestep


start timestep kper="99" kstp="1" mode="normal"

 #Stressperiod Save Options

 BEGIN READING OUTPUT CONTROL FOR STRESS PERIOD 99
      ALL TIME STEPS WILL BE SAVED
      ALL TIME STEPS WILL BE SAVED

 END READING OUTPUT CONTROL FOR STRESS PERIOD 99


 PROCESSING STORAGE PERIOD DATA
 END PROCESSING STORAGE PERIOD DATA


 STRESS PERIOD 99 IS TRANSIENT


 REUSING DRNS FROM LAST STRESS PERIOD

 REUSING RIVS FROM LAST STRESS PERIOD

 REUSING RIVS FROM LAST STRESS PERIOD

 REUSING RCHS FROM LAST STRESS PERIOD
 UBDSV06 SAVING              DRN IN MODEL GWF_1            PACKAGE GWF_1           CONNECTED TO MODEL GWF_1            PACKAGE DRN_SYS1         ON UNIT   1018 AT TIME STEP      1, STRESS PERIOD     99
 UBDSV06 SAVING              RIV IN MODEL GWF_1            PACKAGE GWF_1           CONNECTED TO MODEL GWF_1            PACKAGE RIV_SYS1         ON UNIT   1018 AT TIME STEP      1, STRESS PERIOD     99
 UBDSV06 SAVING              RIV IN MODEL GWF_1            PACKAGE GWF_1           CONNECTED TO MODEL GWF_1            PACKAGE RIV_SYS2         ON UNIT   1018 AT TIME STEP      1, STRESS PERIOD     99
 UBDSV06 SAVING              RCH IN MODEL GWF_1            PACKAGE GWF_1           CONNECTED TO MODEL GWF_1            PACKAGE RCH_MSW          ON UNIT   1018 AT TIME STEP      1, STRESS PERIOD     99

 HEAD WILL BE SAVED ON UNIT 1017 AT END OF TIME STEP    1, STRESS PERIOD   99


  VOLUME BUDGET FOR ENTIRE MODEL AT END OF TIME STEP    1, STRESS PERIOD  99
  ---------------------------------------------------------------------------------------------------

     CUMULATIVE VOLUME      L**3       RATES FOR THIS TIME STEP      L**3/T          PACKAGE NAME    
     ------------------                 ------------------------                     ----------------

           IN:                                      IN:
           ---                                      ---
              STO-SS =      179152.4318                STO-SS =           3.4375     STORAGE                          
                 DRN =           0.0000                   DRN =           0.0000     DRN_SYS1                         
                 RIV =       50026.6740                   RIV =         474.4042     RIV_SYS1                         
                 RIV =           0.0000                   RIV =           0.0000     RIV_SYS2                         
                 RCH =      187796.7052                   RCH =        3356.1383     RCH_MSW                          

            TOTAL IN =      416975.8111              TOTAL IN =        3833.9800

          OUT:                                     OUT:
          ----                                     ----
              STO-SS =       14052.1038                STO-SS =         672.3690     STORAGE                          
                 DRN =        9017.4579                   DRN =          65.0850     DRN_SYS1                         
                 RIV =      366098.5430                   RIV =        2912.3278     RIV_SYS1                         
                 RIV =       24450.0271                   RIV =         184.1884     RIV_SYS2                         
                 RCH =        3357.8410                   RCH =           0.0000     RCH_MSW                          

           TOTAL OUT =      416975.9727             TOTAL OUT =        3833.9703

            IN - OUT =          -0.1616              IN - OUT =       9.7287E-03

 PERCENT DISCREPANCY =          -0.00     PERCENT DISCREPANCY =           0.00




         TIME SUMMARY AT END OF TIME STEP    1 IN STRESS PERIOD   99
                    SECONDS     MINUTES      HOURS       DAYS        YEARS
                    -----------------------------------------------------------
   TIME STEP LENGTH  86400.      1440.0      24.000      1.0000     2.73785E-03
 STRESS PERIOD TIME  86400.      1440.0      24.000      1.0000     2.73785E-03
         TOTAL TIME 8.55360E+06 1.42560E+05  2376.0      99.000     0.27105    


end timestep


start timestep kper="100" kstp="1" mode="normal"

 #Stressperiod Save Options

 BEGIN READING OUTPUT CONTROL FOR STRESS PERIOD 100
      ALL TIME STEPS WILL BE SAVED
      ALL TIME STEPS WILL BE SAVED

 END READING OUTPUT CONTROL FOR STRESS PERIOD 100


 PROCESSING STORAGE PERIOD DATA
 END PROCESSING STORAGE PERIOD DATA


 STRESS PERIOD 100 IS TRANSIENT


 REUSING DRNS FROM LAST STRESS PERIOD

 REUSING RIVS FROM LAST STRESS PERIOD

 REUSING RIVS FROM LAST STRESS PERIOD

 REUSING RCHS FROM LAST STRESS PERIOD
 UBDSV06 SAVING              DRN IN MODEL GWF_1            PACKAGE GWF_1           CONNECTED TO MODEL GWF_1            PACKAGE DRN_SYS1         ON UNIT   1018 AT TIME STEP      1, STRESS PERIOD    100
 UBDSV06 SAVING              RIV IN MODEL GWF_1            PACKAGE GWF_1           CONNECTED TO MODEL GWF_1            PACKAGE RIV_SYS1         ON UNIT   1018 AT TIME STEP      1, STRESS PERIOD    100
 UBDSV06 SAVING              RIV IN MODEL GWF_1            PACKAGE GWF_1           CONNECTED TO MODEL GWF_1            PACKAGE RIV_SYS2         ON UNIT   1018 AT TIME STEP      1, STRESS PERIOD    100
 UBDSV06 SAVING              RCH IN MODEL GWF_1            PACKAGE GWF_1           CONNECTED TO MODEL GWF_1            PACKAGE RCH_MSW          ON UNIT   1018 AT TIME STEP      1, STRESS PERIOD    100

 HEAD WILL BE SAVED ON UNIT 1017 AT END OF TIME STEP    1, STRESS PERIOD  100


  VOLUME BUDGET FOR ENTIRE MODEL AT END OF TIME STEP    1, STRESS PERIOD 100
  ---------------------------------------------------------------------------------------------------

     CUMULATIVE VOLUME      L**3       RATES FOR THIS TIME STEP      L**3/T          PACKAGE NAME    
     ------------------                 ------------------------                     ----------------

           IN:                                      IN:
           ---                                      ---
              STO-SS =      179162.8440                STO-SS =          10.4122     STORAGE                          
                 DRN =           0.0000                   DRN =           0.0000     DRN_SYS1                         
                 RIV =       50500.3583                   RIV =         473.6842     RIV_SYS1                         
                 RIV =           0.0000                   RIV =           0.0000     RIV_SYS2                         
                 RCH =      190994.2565                   RCH =        3197.5513     RCH_MSW                          

            TOTAL IN =      420657.4588              TOTAL IN =        3681.6477

          OUT:                                     OUT:
          ----                                     ----
              STO-SS =       14566.6824                STO-SS =         514.5786     STORAGE                          
                 DRN =        9083.7270                   DRN =          66.2692     DRN_SYS1                         
                 RIV =      369012.2786                   RIV =        2913.7357     RIV_SYS1                         
                 RIV =       24637.0763                   RIV =         187.0492     RIV_SYS2                         
                 RCH =        3357.8410                   RCH =           0.0000     RCH_MSW                          

           TOTAL OUT =      420657.6054             TOTAL OUT =        3681.6327

            IN - OUT =          -0.1466              IN - OUT =       1.4988E-02

 PERCENT DISCREPANCY =          -0.00     PERCENT DISCREPANCY =           0.00




         TIME SUMMARY AT END OF TIME STEP    1 IN STRESS PERIOD  100
                    SECONDS     MINUTES      HOURS       DAYS        YEARS
                    -----------------------------------------------------------
   TIME STEP LENGTH  86400.      1440.0      24.000      1.0000     2.73785E-03
 STRESS PERIOD TIME  86400.      1440.0      24.000      1.0000     2.73785E-03
         TOTAL TIME 8.64000E+06 1.44000E+05  2400.0      100.00     0.27379    


end timestep


start timestep kper="101" kstp="1" mode="normal"

 #Stressperiod Save Options

 BEGIN READING OUTPUT CONTROL FOR STRESS PERIOD 101
      ALL TIME STEPS WILL BE SAVED
      ALL TIME STEPS WILL BE SAVED

 END READING OUTPUT CONTROL FOR STRESS PERIOD 101


 PROCESSING STORAGE PERIOD DATA
 END PROCESSING STORAGE PERIOD DATA


 STRESS PERIOD 101 IS TRANSIENT


 REUSING DRNS FROM LAST STRESS PERIOD

 REUSING RIVS FROM LAST STRESS PERIOD

 REUSING RIVS FROM LAST STRESS PERIOD

 REUSING RCHS FROM LAST STRESS PERIOD
 UBDSV06 SAVING              DRN IN MODEL GWF_1            PACKAGE GWF_1           CONNECTED TO MODEL GWF_1            PACKAGE DRN_SYS1         ON UNIT   1018 AT TIME STEP      1, STRESS PERIOD    101
 UBDSV06 SAVING              RIV IN MODEL GWF_1            PACKAGE GWF_1           CONNECTED TO MODEL GWF_1            PACKAGE RIV_SYS1         ON UNIT   1018 AT TIME STEP      1, STRESS PERIOD    101
 UBDSV06 SAVING              RIV IN MODEL GWF_1            PACKAGE GWF_1           CONNECTED TO MODEL GWF_1            PACKAGE RIV_SYS2         ON UNIT   1018 AT TIME STEP      1, STRESS PERIOD    101
 UBDSV06 SAVING              RCH IN MODEL GWF_1            PACKAGE GWF_1           CONNECTED TO MODEL GWF_1            PACKAGE RCH_MSW          ON UNIT   1018 AT TIME STEP      1, STRESS PERIOD    101

 HEAD WILL BE SAVED ON UNIT 1017 AT END OF TIME STEP    1, STRESS PERIOD  101


  VOLUME BUDGET FOR ENTIRE MODEL AT END OF TIME STEP    1, STRESS PERIOD 101
  ---------------------------------------------------------------------------------------------------

     CUMULATIVE VOLUME      L**3       RATES FOR THIS TIME STEP      L**3/T          PACKAGE NAME    
     ------------------                 ------------------------                     ----------------

           IN:                                      IN:
           ---                                      ---
              STO-SS =      179209.5338                STO-SS =          46.6898     STORAGE                          
                 DRN =           0.0000                   DRN =           0.0000     DRN_SYS1                         
                 RIV =       50981.6430                   RIV =         481.2848     RIV_SYS1                         
                 RIV =           0.0000                   RIV =           0.0000     RIV_SYS2                         
                 RCH =      193913.7981                   RCH =        2919.5416     RCH_MSW                          

            TOTAL IN =      424104.9750              TOTAL IN =        3447.5162

          OUT:                                     OUT:
          ----                                     ----
              STO-SS =       14866.4922                STO-SS =         299.8098     STORAGE                          
                 DRN =        9150.7091                   DRN =          66.9821     DRN_SYS1                         
                 RIV =      371904.3971                   RIV =        2892.1184     RIV_SYS1                         
                 RIV =       24825.6615                   RIV =         188.5852     RIV_SYS2                         
                 RCH =        3357.8410                   RCH =           0.0000     RCH_MSW                          

           TOTAL OUT =      424105.1009             TOTAL OUT =        3447.4955

            IN - OUT =          -0.1259              IN - OUT =       2.0724E-02

 PERCENT DISCREPANCY =          -0.00     PERCENT DISCREPANCY =           0.00




         TIME SUMMARY AT END OF TIME STEP    1 IN STRESS PERIOD  101
                    SECONDS     MINUTES      HOURS       DAYS        YEARS
                    -----------------------------------------------------------
   TIME STEP LENGTH  86400.      1440.0      24.000      1.0000     2.73785E-03
 STRESS PERIOD TIME  86400.      1440.0      24.000      1.0000     2.73785E-03
         TOTAL TIME 8.72640E+06 1.45440E+05  2424.0      101.00     0.27652    


end timestep


start timestep kper="102" kstp="1" mode="normal"

 #Stressperiod Save Options

 BEGIN READING OUTPUT CONTROL FOR STRESS PERIOD 102
      ALL TIME STEPS WILL BE SAVED
      ALL TIME STEPS WILL BE SAVED

 END READING OUTPUT CONTROL FOR STRESS PERIOD 102


 PROCESSING STORAGE PERIOD DATA
 END PROCESSING STORAGE PERIOD DATA


 STRESS PERIOD 102 IS TRANSIENT


 REUSING DRNS FROM LAST STRESS PERIOD

 REUSING RIVS FROM LAST STRESS PERIOD

 REUSING RIVS FROM LAST STRESS PERIOD

 REUSING RCHS FROM LAST STRESS PERIOD
 UBDSV06 SAVING              DRN IN MODEL GWF_1            PACKAGE GWF_1           CONNECTED TO MODEL GWF_1            PACKAGE DRN_SYS1         ON UNIT   1018 AT TIME STEP      1, STRESS PERIOD    102
 UBDSV06 SAVING              RIV IN MODEL GWF_1            PACKAGE GWF_1           CONNECTED TO MODEL GWF_1            PACKAGE RIV_SYS1         ON UNIT   1018 AT TIME STEP      1, STRESS PERIOD    102
 UBDSV06 SAVING              RIV IN MODEL GWF_1            PACKAGE GWF_1           CONNECTED TO MODEL GWF_1            PACKAGE RIV_SYS2         ON UNIT   1018 AT TIME STEP      1, STRESS PERIOD    102
 UBDSV06 SAVING              RCH IN MODEL GWF_1            PACKAGE GWF_1           CONNECTED TO MODEL GWF_1            PACKAGE RCH_MSW          ON UNIT   1018 AT TIME STEP      1, STRESS PERIOD    102

 HEAD WILL BE SAVED ON UNIT 1017 AT END OF TIME STEP    1, STRESS PERIOD  102


  VOLUME BUDGET FOR ENTIRE MODEL AT END OF TIME STEP    1, STRESS PERIOD 102
  ---------------------------------------------------------------------------------------------------

     CUMULATIVE VOLUME      L**3       RATES FOR THIS TIME STEP      L**3/T          PACKAGE NAME    
     ------------------                 ------------------------                     ----------------

           IN:                                      IN:
           ---                                      ---
              STO-SS =      179322.7762                STO-SS =         113.2424     STORAGE                          
                 DRN =           0.0000                   DRN =           0.0000     DRN_SYS1                         
                 RIV =       51475.9553                   RIV =         494.3122     RIV_SYS1                         
                 RIV =           0.0000                   RIV =           0.0000     RIV_SYS2                         
                 RCH =      196562.8995                   RCH =        2649.1014     RCH_MSW                          

            TOTAL IN =      427361.6310              TOTAL IN =        3256.6560

          OUT:                                     OUT:
          ----                                     ----
              STO-SS =       15010.2937                STO-SS =         143.8015     STORAGE                          
                 DRN =        9217.9682                   DRN =          67.2591     DRN_SYS1                         
                 RIV =      374761.0572                   RIV =        2856.6601     RIV_SYS1                         
                 RIV =       25014.5789                   RIV =         188.9174     RIV_SYS2                         
                 RCH =        3357.8410                   RCH =           0.0000     RCH_MSW                          

           TOTAL OUT =      427361.7389             TOTAL OUT =        3256.6381

            IN - OUT =          -0.1080              IN - OUT =       1.7932E-02

 PERCENT DISCREPANCY =          -0.00     PERCENT DISCREPANCY =           0.00




         TIME SUMMARY AT END OF TIME STEP    1 IN STRESS PERIOD  102
                    SECONDS     MINUTES      HOURS       DAYS        YEARS
                    -----------------------------------------------------------
   TIME STEP LENGTH  86400.      1440.0      24.000      1.0000     2.73785E-03
 STRESS PERIOD TIME  86400.      1440.0      24.000      1.0000     2.73785E-03
         TOTAL TIME 8.81280E+06 1.46880E+05  2448.0      102.00     0.27926    


end timestep


start timestep kper="103" kstp="1" mode="normal"

 #Stressperiod Save Options

 BEGIN READING OUTPUT CONTROL FOR STRESS PERIOD 103
      ALL TIME STEPS WILL BE SAVED
      ALL TIME STEPS WILL BE SAVED

 END READING OUTPUT CONTROL FOR STRESS PERIOD 103


 PROCESSING STORAGE PERIOD DATA
 END PROCESSING STORAGE PERIOD DATA


 STRESS PERIOD 103 IS TRANSIENT


 REUSING DRNS FROM LAST STRESS PERIOD

 REUSING RIVS FROM LAST STRESS PERIOD

 REUSING RIVS FROM LAST STRESS PERIOD

 REUSING RCHS FROM LAST STRESS PERIOD
 UBDSV06 SAVING              DRN IN MODEL GWF_1            PACKAGE GWF_1           CONNECTED TO MODEL GWF_1            PACKAGE DRN_SYS1         ON UNIT   1018 AT TIME STEP      1, STRESS PERIOD    103
 UBDSV06 SAVING              RIV IN MODEL GWF_1            PACKAGE GWF_1           CONNECTED TO MODEL GWF_1            PACKAGE RIV_SYS1         ON UNIT   1018 AT TIME STEP      1, STRESS PERIOD    103
 UBDSV06 SAVING              RIV IN MODEL GWF_1            PACKAGE GWF_1           CONNECTED TO MODEL GWF_1            PACKAGE RIV_SYS2         ON UNIT   1018 AT TIME STEP      1, STRESS PERIOD    103
 UBDSV06 SAVING              RCH IN MODEL GWF_1            PACKAGE GWF_1           CONNECTED TO MODEL GWF_1            PACKAGE RCH_MSW          ON UNIT   1018 AT TIME STEP      1, STRESS PERIOD    103

 HEAD WILL BE SAVED ON UNIT 1017 AT END OF TIME STEP    1, STRESS PERIOD  103


  VOLUME BUDGET FOR ENTIRE MODEL AT END OF TIME STEP    1, STRESS PERIOD 103
  ---------------------------------------------------------------------------------------------------

     CUMULATIVE VOLUME      L**3       RATES FOR THIS TIME STEP      L**3/T          PACKAGE NAME    
     ------------------                 ------------------------                     ----------------

           IN:                                      IN:
           ---                                      ---
              STO-SS =      179524.4124                STO-SS =         201.6362     STORAGE                          
                 DRN =           0.0000                   DRN =           0.0000     DRN_SYS1                         
                 RIV =       51986.2972                   RIV =         510.3419     RIV_SYS1                         
                 RIV =           0.0000                   RIV =           0.0000     RIV_SYS2                         
                 RCH =      198978.1352                   RCH =        2415.2358     RCH_MSW                          

            TOTAL IN =      430488.8448              TOTAL IN =        3127.2139

          OUT:                                     OUT:
          ----                                     ----
              STO-SS =       15068.8856                STO-SS =          58.5919     STORAGE                          
                 DRN =        9285.1698                   DRN =          67.2015     DRN_SYS1                         
                 RIV =      377574.1346                   RIV =        2813.0775     RIV_SYS1                         
                 RIV =       25202.9346                   RIV =         188.3557     RIV_SYS2                         
                 RCH =        3357.8410                   RCH =           0.0000     RCH_MSW                          

           TOTAL OUT =      430488.9656             TOTAL OUT =        3127.2267

            IN - OUT =          -0.1208              IN - OUT =      -1.2789E-02

 PERCENT DISCREPANCY =          -0.00     PERCENT DISCREPANCY =          -0.00




         TIME SUMMARY AT END OF TIME STEP    1 IN STRESS PERIOD  103
                    SECONDS     MINUTES      HOURS       DAYS        YEARS
                    -----------------------------------------------------------
   TIME STEP LENGTH  86400.      1440.0      24.000      1.0000     2.73785E-03
 STRESS PERIOD TIME  86400.      1440.0      24.000      1.0000     2.73785E-03
         TOTAL TIME 8.89920E+06 1.48320E+05  2472.0      103.00     0.28200    


end timestep


start timestep kper="104" kstp="1" mode="normal"

 #Stressperiod Save Options

 BEGIN READING OUTPUT CONTROL FOR STRESS PERIOD 104
      ALL TIME STEPS WILL BE SAVED
      ALL TIME STEPS WILL BE SAVED

 END READING OUTPUT CONTROL FOR STRESS PERIOD 104


 PROCESSING STORAGE PERIOD DATA
 END PROCESSING STORAGE PERIOD DATA


 STRESS PERIOD 104 IS TRANSIENT


 REUSING DRNS FROM LAST STRESS PERIOD

 REUSING RIVS FROM LAST STRESS PERIOD

 REUSING RIVS FROM LAST STRESS PERIOD

 REUSING RCHS FROM LAST STRESS PERIOD
 UBDSV06 SAVING              DRN IN MODEL GWF_1            PACKAGE GWF_1           CONNECTED TO MODEL GWF_1            PACKAGE DRN_SYS1         ON UNIT   1018 AT TIME STEP      1, STRESS PERIOD    104
 UBDSV06 SAVING              RIV IN MODEL GWF_1            PACKAGE GWF_1           CONNECTED TO MODEL GWF_1            PACKAGE RIV_SYS1         ON UNIT   1018 AT TIME STEP      1, STRESS PERIOD    104
 UBDSV06 SAVING              RIV IN MODEL GWF_1            PACKAGE GWF_1           CONNECTED TO MODEL GWF_1            PACKAGE RIV_SYS2         ON UNIT   1018 AT TIME STEP      1, STRESS PERIOD    104
 UBDSV06 SAVING              RCH IN MODEL GWF_1            PACKAGE GWF_1           CONNECTED TO MODEL GWF_1            PACKAGE RCH_MSW          ON UNIT   1018 AT TIME STEP      1, STRESS PERIOD    104

 HEAD WILL BE SAVED ON UNIT 1017 AT END OF TIME STEP    1, STRESS PERIOD  104


  VOLUME BUDGET FOR ENTIRE MODEL AT END OF TIME STEP    1, STRESS PERIOD 104
  ---------------------------------------------------------------------------------------------------

     CUMULATIVE VOLUME      L**3       RATES FOR THIS TIME STEP      L**3/T          PACKAGE NAME    
     ------------------                 ------------------------                     ----------------

           IN:                                      IN:
           ---                                      ---
              STO-SS =      179819.6260                STO-SS =         295.2135     STORAGE                          
                 DRN =           0.0000                   DRN =           0.0000     DRN_SYS1                         
                 RIV =       52514.0897                   RIV =         527.7925     RIV_SYS1                         
                 RIV =           0.0000                   RIV =           0.0000     RIV_SYS2                         
                 RCH =      201189.1877                   RCH =        2211.0525     RCH_MSW                          

            TOTAL IN =      433522.9034              TOTAL IN =        3034.0585

          OUT:                                     OUT:
          ----                                     ----
              STO-SS =       15082.5518                STO-SS =          13.6662     STORAGE                          
                 DRN =        9352.0347                   DRN =          66.8649     DRN_SYS1                         
                 RIV =      380340.6061                   RIV =        2766.4714     RIV_SYS1                         
                 RIV =       25389.9965                   RIV =         187.0620     RIV_SYS2                         
                 RCH =        3357.8410                   RCH =           0.0000     RCH_MSW                          

           TOTAL OUT =      433523.0301             TOTAL OUT =        3034.0645

            IN - OUT =          -0.1267              IN - OUT =      -5.9889E-03

 PERCENT DISCREPANCY =          -0.00     PERCENT DISCREPANCY =          -0.00




         TIME SUMMARY AT END OF TIME STEP    1 IN STRESS PERIOD  104
                    SECONDS     MINUTES      HOURS       DAYS        YEARS
                    -----------------------------------------------------------
   TIME STEP LENGTH  86400.      1440.0      24.000      1.0000     2.73785E-03
 STRESS PERIOD TIME  86400.      1440.0      24.000      1.0000     2.73785E-03
         TOTAL TIME 8.98560E+06 1.49760E+05  2496.0      104.00     0.28474    


end timestep


start timestep kper="105" kstp="1" mode="normal"

 #Stressperiod Save Options

 BEGIN READING OUTPUT CONTROL FOR STRESS PERIOD 105
      ALL TIME STEPS WILL BE SAVED
      ALL TIME STEPS WILL BE SAVED

 END READING OUTPUT CONTROL FOR STRESS PERIOD 105


 PROCESSING STORAGE PERIOD DATA
 END PROCESSING STORAGE PERIOD DATA


 STRESS PERIOD 105 IS TRANSIENT


 REUSING DRNS FROM LAST STRESS PERIOD

 REUSING RIVS FROM LAST STRESS PERIOD

 REUSING RIVS FROM LAST STRESS PERIOD

 REUSING RCHS FROM LAST STRESS PERIOD
 UBDSV06 SAVING              DRN IN MODEL GWF_1            PACKAGE GWF_1           CONNECTED TO MODEL GWF_1            PACKAGE DRN_SYS1         ON UNIT   1018 AT TIME STEP      1, STRESS PERIOD    105
 UBDSV06 SAVING              RIV IN MODEL GWF_1            PACKAGE GWF_1           CONNECTED TO MODEL GWF_1            PACKAGE RIV_SYS1         ON UNIT   1018 AT TIME STEP      1, STRESS PERIOD    105
 UBDSV06 SAVING              RIV IN MODEL GWF_1            PACKAGE GWF_1           CONNECTED TO MODEL GWF_1            PACKAGE RIV_SYS2         ON UNIT   1018 AT TIME STEP      1, STRESS PERIOD    105
 UBDSV06 SAVING              RCH IN MODEL GWF_1            PACKAGE GWF_1           CONNECTED TO MODEL GWF_1            PACKAGE RCH_MSW          ON UNIT   1018 AT TIME STEP      1, STRESS PERIOD    105

 HEAD WILL BE SAVED ON UNIT 1017 AT END OF TIME STEP    1, STRESS PERIOD  105


  VOLUME BUDGET FOR ENTIRE MODEL AT END OF TIME STEP    1, STRESS PERIOD 105
  ---------------------------------------------------------------------------------------------------

     CUMULATIVE VOLUME      L**3       RATES FOR THIS TIME STEP      L**3/T          PACKAGE NAME    
     ------------------                 ------------------------                     ----------------

           IN:                                      IN:
           ---                                      ---
              STO-SS =      180187.5611                STO-SS =         367.9351     STORAGE                          
                 DRN =           0.0000                   DRN =           0.0000     DRN_SYS1                         
                 RIV =       53058.9495                   RIV =         544.8598     RIV_SYS1                         
                 RIV =           0.0000                   RIV =           0.0000     RIV_SYS2                         
                 RCH =      203249.7560                   RCH =        2060.5683     RCH_MSW                          

            TOTAL IN =      436496.2665              TOTAL IN =        2973.3632

          OUT:                                     OUT:
          ----                                     ----
              STO-SS =       15082.6866                STO-SS =           0.1348     STORAGE                          
                 DRN =        9418.3715                   DRN =          66.3368     DRN_SYS1                         
                 RIV =      383062.2155                   RIV =        2721.6094     RIV_SYS1                         
                 RIV =       25575.2813                   RIV =         185.2847     RIV_SYS2                         
                 RCH =        3357.8410                   RCH =           0.0000     RCH_MSW                          

           TOTAL OUT =      436496.3958             TOTAL OUT =        2973.3657

            IN - OUT =          -0.1293              IN - OUT =      -2.5638E-03

 PERCENT DISCREPANCY =          -0.00     PERCENT DISCREPANCY =          -0.00




         TIME SUMMARY AT END OF TIME STEP    1 IN STRESS PERIOD  105
                    SECONDS     MINUTES      HOURS       DAYS        YEARS
                    -----------------------------------------------------------
   TIME STEP LENGTH  86400.      1440.0      24.000      1.0000     2.73785E-03
 STRESS PERIOD TIME  86400.      1440.0      24.000      1.0000     2.73785E-03
         TOTAL TIME 9.07200E+06 1.51200E+05  2520.0      105.00     0.28747    


end timestep


start timestep kper="106" kstp="1" mode="normal"

 #Stressperiod Save Options

 BEGIN READING OUTPUT CONTROL FOR STRESS PERIOD 106
      ALL TIME STEPS WILL BE SAVED
      ALL TIME STEPS WILL BE SAVED

 END READING OUTPUT CONTROL FOR STRESS PERIOD 106


 PROCESSING STORAGE PERIOD DATA
 END PROCESSING STORAGE PERIOD DATA


 STRESS PERIOD 106 IS TRANSIENT


 REUSING DRNS FROM LAST STRESS PERIOD

 REUSING RIVS FROM LAST STRESS PERIOD

 REUSING RIVS FROM LAST STRESS PERIOD

 REUSING RCHS FROM LAST STRESS PERIOD
 UBDSV06 SAVING              DRN IN MODEL GWF_1            PACKAGE GWF_1           CONNECTED TO MODEL GWF_1            PACKAGE DRN_SYS1         ON UNIT   1018 AT TIME STEP      1, STRESS PERIOD    106
 UBDSV06 SAVING              RIV IN MODEL GWF_1            PACKAGE GWF_1           CONNECTED TO MODEL GWF_1            PACKAGE RIV_SYS1         ON UNIT   1018 AT TIME STEP      1, STRESS PERIOD    106
 UBDSV06 SAVING              RIV IN MODEL GWF_1            PACKAGE GWF_1           CONNECTED TO MODEL GWF_1            PACKAGE RIV_SYS2         ON UNIT   1018 AT TIME STEP      1, STRESS PERIOD    106
 UBDSV06 SAVING              RCH IN MODEL GWF_1            PACKAGE GWF_1           CONNECTED TO MODEL GWF_1            PACKAGE RCH_MSW          ON UNIT   1018 AT TIME STEP      1, STRESS PERIOD    106

 HEAD WILL BE SAVED ON UNIT 1017 AT END OF TIME STEP    1, STRESS PERIOD  106


  VOLUME BUDGET FOR ENTIRE MODEL AT END OF TIME STEP    1, STRESS PERIOD 106
  ---------------------------------------------------------------------------------------------------

     CUMULATIVE VOLUME      L**3       RATES FOR THIS TIME STEP      L**3/T          PACKAGE NAME    
     ------------------                 ------------------------                     ----------------

           IN:                                      IN:
           ---                                      ---
              STO-SS =      180637.7653                STO-SS =         450.2042     STORAGE                          
                 DRN =           0.0000                   DRN =           0.0000     DRN_SYS1                         
                 RIV =       53621.2646                   RIV =         562.3151     RIV_SYS1                         
                 RIV =           0.0000                   RIV =           0.0000     RIV_SYS2                         
                 RCH =      205162.1038                   RCH =        1912.3478     RCH_MSW                          

            TOTAL IN =      439421.1336              TOTAL IN =        2924.8671

          OUT:                                     OUT:
          ----                                     ----
              STO-SS =       15082.6866                STO-SS =           0.0000     STORAGE                          
                 DRN =        9484.0268                   DRN =          65.6553     DRN_SYS1                         
                 RIV =      385738.2974                   RIV =        2676.0819     RIV_SYS1                         
                 RIV =       25758.4116                   RIV =         183.1304     RIV_SYS2                         
                 RCH =        3357.8410                   RCH =           0.0000     RCH_MSW                          

           TOTAL OUT =      439421.2634             TOTAL OUT =        2924.8675

            IN - OUT =          -0.1297              IN - OUT =      -4.3343E-04

 PERCENT DISCREPANCY =          -0.00     PERCENT DISCREPANCY =          -0.00




         TIME SUMMARY AT END OF TIME STEP    1 IN STRESS PERIOD  106
                    SECONDS     MINUTES      HOURS       DAYS        YEARS
                    -----------------------------------------------------------
   TIME STEP LENGTH  86400.      1440.0      24.000      1.0000     2.73785E-03
 STRESS PERIOD TIME  86400.      1440.0      24.000      1.0000     2.73785E-03
         TOTAL TIME 9.15840E+06 1.52640E+05  2544.0      106.00     0.29021    


end timestep


start timestep kper="107" kstp="1" mode="normal"

 #Stressperiod Save Options

 BEGIN READING OUTPUT CONTROL FOR STRESS PERIOD 107
      ALL TIME STEPS WILL BE SAVED
      ALL TIME STEPS WILL BE SAVED

 END READING OUTPUT CONTROL FOR STRESS PERIOD 107


 PROCESSING STORAGE PERIOD DATA
 END PROCESSING STORAGE PERIOD DATA


 STRESS PERIOD 107 IS TRANSIENT


 REUSING DRNS FROM LAST STRESS PERIOD

 REUSING RIVS FROM LAST STRESS PERIOD

 REUSING RIVS FROM LAST STRESS PERIOD

 REUSING RCHS FROM LAST STRESS PERIOD
 UBDSV06 SAVING              DRN IN MODEL GWF_1            PACKAGE GWF_1           CONNECTED TO MODEL GWF_1            PACKAGE DRN_SYS1         ON UNIT   1018 AT TIME STEP      1, STRESS PERIOD    107
 UBDSV06 SAVING              RIV IN MODEL GWF_1            PACKAGE GWF_1           CONNECTED TO MODEL GWF_1            PACKAGE RIV_SYS1         ON UNIT   1018 AT TIME STEP      1, STRESS PERIOD    107
 UBDSV06 SAVING              RIV IN MODEL GWF_1            PACKAGE GWF_1           CONNECTED TO MODEL GWF_1            PACKAGE RIV_SYS2         ON UNIT   1018 AT TIME STEP      1, STRESS PERIOD    107
 UBDSV06 SAVING              RCH IN MODEL GWF_1            PACKAGE GWF_1           CONNECTED TO MODEL GWF_1            PACKAGE RCH_MSW          ON UNIT   1018 AT TIME STEP      1, STRESS PERIOD    107

 HEAD WILL BE SAVED ON UNIT 1017 AT END OF TIME STEP    1, STRESS PERIOD  107


  VOLUME BUDGET FOR ENTIRE MODEL AT END OF TIME STEP    1, STRESS PERIOD 107
  ---------------------------------------------------------------------------------------------------

     CUMULATIVE VOLUME      L**3       RATES FOR THIS TIME STEP      L**3/T          PACKAGE NAME    
     ------------------                 ------------------------                     ----------------

           IN:                                      IN:
           ---                                      ---
              STO-SS =      181156.4866                STO-SS =         518.7213     STORAGE                          
                 DRN =           0.0000                   DRN =           0.0000     DRN_SYS1                         
                 RIV =       54201.1405                   RIV =         579.8759     RIV_SYS1                         
                 RIV =           0.0000                   RIV =           0.0000     RIV_SYS2                         
                 RCH =      206939.1869                   RCH =        1777.0832     RCH_MSW                          

            TOTAL IN =      442296.8140              TOTAL IN =        2875.6804

          OUT:                                     OUT:
          ----                                     ----
              STO-SS =       15082.6866                STO-SS =           0.0000     STORAGE                          
                 DRN =        9548.8659                   DRN =          64.8391     DRN_SYS1                         
                 RIV =      388368.4794                   RIV =        2630.1820     RIV_SYS1                         
                 RIV =       25939.0713                   RIV =         180.6597     RIV_SYS2                         
                 RCH =        3357.8410                   RCH =           0.0000     RCH_MSW                          

           TOTAL OUT =      442296.9442             TOTAL OUT =        2875.6808

            IN - OUT =          -0.1301              IN - OUT =      -3.6770E-04

 PERCENT DISCREPANCY =          -0.00     PERCENT DISCREPANCY =          -0.00




         TIME SUMMARY AT END OF TIME STEP    1 IN STRESS PERIOD  107
                    SECONDS     MINUTES      HOURS       DAYS        YEARS
                    -----------------------------------------------------------
   TIME STEP LENGTH  86400.      1440.0      24.000      1.0000     2.73785E-03
 STRESS PERIOD TIME  86400.      1440.0      24.000      1.0000     2.73785E-03
         TOTAL TIME 9.24480E+06 1.54080E+05  2568.0      107.00     0.29295    


end timestep


start timestep kper="108" kstp="1" mode="normal"

 #Stressperiod Save Options

 BEGIN READING OUTPUT CONTROL FOR STRESS PERIOD 108
      ALL TIME STEPS WILL BE SAVED
      ALL TIME STEPS WILL BE SAVED

 END READING OUTPUT CONTROL FOR STRESS PERIOD 108


 PROCESSING STORAGE PERIOD DATA
 END PROCESSING STORAGE PERIOD DATA


 STRESS PERIOD 108 IS TRANSIENT


 REUSING DRNS FROM LAST STRESS PERIOD

 REUSING RIVS FROM LAST STRESS PERIOD

 REUSING RIVS FROM LAST STRESS PERIOD

 REUSING RCHS FROM LAST STRESS PERIOD
 UBDSV06 SAVING              DRN IN MODEL GWF_1            PACKAGE GWF_1           CONNECTED TO MODEL GWF_1            PACKAGE DRN_SYS1         ON UNIT   1018 AT TIME STEP      1, STRESS PERIOD    108
 UBDSV06 SAVING              RIV IN MODEL GWF_1            PACKAGE GWF_1           CONNECTED TO MODEL GWF_1            PACKAGE RIV_SYS1         ON UNIT   1018 AT TIME STEP      1, STRESS PERIOD    108
 UBDSV06 SAVING              RIV IN MODEL GWF_1            PACKAGE GWF_1           CONNECTED TO MODEL GWF_1            PACKAGE RIV_SYS2         ON UNIT   1018 AT TIME STEP      1, STRESS PERIOD    108
 UBDSV06 SAVING              RCH IN MODEL GWF_1            PACKAGE GWF_1           CONNECTED TO MODEL GWF_1            PACKAGE RCH_MSW          ON UNIT   1018 AT TIME STEP      1, STRESS PERIOD    108

 HEAD WILL BE SAVED ON UNIT 1017 AT END OF TIME STEP    1, STRESS PERIOD  108


  VOLUME BUDGET FOR ENTIRE MODEL AT END OF TIME STEP    1, STRESS PERIOD 108
  ---------------------------------------------------------------------------------------------------

     CUMULATIVE VOLUME      L**3       RATES FOR THIS TIME STEP      L**3/T          PACKAGE NAME    
     ------------------                 ------------------------                     ----------------

           IN:                                      IN:
           ---                                      ---
              STO-SS =      181734.5339                STO-SS =         578.0473     STORAGE                          
                 DRN =           0.0000                   DRN =           0.0000     DRN_SYS1                         
                 RIV =       54798.6057                   RIV =         597.4651     RIV_SYS1                         
                 RIV =           0.0000                   RIV =           0.0000     RIV_SYS2                         
                 RCH =      208589.9360                   RCH =        1650.7491     RCH_MSW                          

            TOTAL IN =      445123.0755              TOTAL IN =        2826.2615

          OUT:                                     OUT:
          ----                                     ----
              STO-SS =       15082.6866                STO-SS =           0.0000     STORAGE                          
                 DRN =        9612.7784                   DRN =          63.9125     DRN_SYS1                         
                 RIV =      390952.9059                   RIV =        2584.4266     RIV_SYS1                         
                 RIV =       26116.9940                   RIV =         177.9227     RIV_SYS2                         
                 RCH =        3357.8410                   RCH =           0.0000     RCH_MSW                          

           TOTAL OUT =      445123.2059             TOTAL OUT =        2826.2618

            IN - OUT =          -0.1304              IN - OUT =      -2.7940E-04

 PERCENT DISCREPANCY =          -0.00     PERCENT DISCREPANCY =          -0.00




         TIME SUMMARY AT END OF TIME STEP    1 IN STRESS PERIOD  108
                    SECONDS     MINUTES      HOURS       DAYS        YEARS
                    -----------------------------------------------------------
   TIME STEP LENGTH  86400.      1440.0      24.000      1.0000     2.73785E-03
 STRESS PERIOD TIME  86400.      1440.0      24.000      1.0000     2.73785E-03
         TOTAL TIME 9.33120E+06 1.55520E+05  2592.0      108.00     0.29569    


end timestep


start timestep kper="109" kstp="1" mode="normal"

 #Stressperiod Save Options

 BEGIN READING OUTPUT CONTROL FOR STRESS PERIOD 109
      ALL TIME STEPS WILL BE SAVED
      ALL TIME STEPS WILL BE SAVED

 END READING OUTPUT CONTROL FOR STRESS PERIOD 109


 PROCESSING STORAGE PERIOD DATA
 END PROCESSING STORAGE PERIOD DATA


 STRESS PERIOD 109 IS TRANSIENT


 REUSING DRNS FROM LAST STRESS PERIOD

 REUSING RIVS FROM LAST STRESS PERIOD

 REUSING RIVS FROM LAST STRESS PERIOD

 REUSING RCHS FROM LAST STRESS PERIOD
 UBDSV06 SAVING              DRN IN MODEL GWF_1            PACKAGE GWF_1           CONNECTED TO MODEL GWF_1            PACKAGE DRN_SYS1         ON UNIT   1018 AT TIME STEP      1, STRESS PERIOD    109
 UBDSV06 SAVING              RIV IN MODEL GWF_1            PACKAGE GWF_1           CONNECTED TO MODEL GWF_1            PACKAGE RIV_SYS1         ON UNIT   1018 AT TIME STEP      1, STRESS PERIOD    109
 UBDSV06 SAVING              RIV IN MODEL GWF_1            PACKAGE GWF_1           CONNECTED TO MODEL GWF_1            PACKAGE RIV_SYS2         ON UNIT   1018 AT TIME STEP      1, STRESS PERIOD    109
 UBDSV06 SAVING              RCH IN MODEL GWF_1            PACKAGE GWF_1           CONNECTED TO MODEL GWF_1            PACKAGE RCH_MSW          ON UNIT   1018 AT TIME STEP      1, STRESS PERIOD    109

 HEAD WILL BE SAVED ON UNIT 1017 AT END OF TIME STEP    1, STRESS PERIOD  109


  VOLUME BUDGET FOR ENTIRE MODEL AT END OF TIME STEP    1, STRESS PERIOD 109
  ---------------------------------------------------------------------------------------------------

     CUMULATIVE VOLUME      L**3       RATES FOR THIS TIME STEP      L**3/T          PACKAGE NAME    
     ------------------                 ------------------------                     ----------------

           IN:                                      IN:
           ---                                      ---
              STO-SS =      182357.2348                STO-SS =         622.7009     STORAGE                          
                 DRN =           0.0000                   DRN =           0.0000     DRN_SYS1                         
                 RIV =       55414.2414                   RIV =         615.6358     RIV_SYS1                         
                 RIV =           0.0000                   RIV =           0.0000     RIV_SYS2                         
                 RCH =      210129.8538                   RCH =        1539.9179     RCH_MSW                          

            TOTAL IN =      447901.3301              TOTAL IN =        2778.2545

          OUT:                                     OUT:
          ----                                     ----
              STO-SS =       15082.6866                STO-SS =           0.0000     STORAGE                          
                 DRN =        9675.6832                   DRN =          62.9048     DRN_SYS1                         
                 RIV =      393493.2566                   RIV =        2540.3507     RIV_SYS1                         
                 RIV =       26291.9932                   RIV =         174.9992     RIV_SYS2                         
                 RCH =        3357.8410                   RCH =           0.0000     RCH_MSW                          

           TOTAL OUT =      447901.4606             TOTAL OUT =        2778.2547

            IN - OUT =          -0.1305              IN - OUT =      -1.4766E-04

 PERCENT DISCREPANCY =          -0.00     PERCENT DISCREPANCY =          -0.00




         TIME SUMMARY AT END OF TIME STEP    1 IN STRESS PERIOD  109
                    SECONDS     MINUTES      HOURS       DAYS        YEARS
                    -----------------------------------------------------------
   TIME STEP LENGTH  86400.      1440.0      24.000      1.0000     2.73785E-03
 STRESS PERIOD TIME  86400.      1440.0      24.000      1.0000     2.73785E-03
         TOTAL TIME 9.41760E+06 1.56960E+05  2616.0      109.00     0.29843    


end timestep


start timestep kper="110" kstp="1" mode="normal"

 #Stressperiod Save Options

 BEGIN READING OUTPUT CONTROL FOR STRESS PERIOD 110
      ALL TIME STEPS WILL BE SAVED
      ALL TIME STEPS WILL BE SAVED

 END READING OUTPUT CONTROL FOR STRESS PERIOD 110


 PROCESSING STORAGE PERIOD DATA
 END PROCESSING STORAGE PERIOD DATA


 STRESS PERIOD 110 IS TRANSIENT


 REUSING DRNS FROM LAST STRESS PERIOD

 REUSING RIVS FROM LAST STRESS PERIOD

 REUSING RIVS FROM LAST STRESS PERIOD

 REUSING RCHS FROM LAST STRESS PERIOD
 UBDSV06 SAVING              DRN IN MODEL GWF_1            PACKAGE GWF_1           CONNECTED TO MODEL GWF_1            PACKAGE DRN_SYS1         ON UNIT   1018 AT TIME STEP      1, STRESS PERIOD    110
 UBDSV06 SAVING              RIV IN MODEL GWF_1            PACKAGE GWF_1           CONNECTED TO MODEL GWF_1            PACKAGE RIV_SYS1         ON UNIT   1018 AT TIME STEP      1, STRESS PERIOD    110
 UBDSV06 SAVING              RIV IN MODEL GWF_1            PACKAGE GWF_1           CONNECTED TO MODEL GWF_1            PACKAGE RIV_SYS2         ON UNIT   1018 AT TIME STEP      1, STRESS PERIOD    110
 UBDSV06 SAVING              RCH IN MODEL GWF_1            PACKAGE GWF_1           CONNECTED TO MODEL GWF_1            PACKAGE RCH_MSW          ON UNIT   1018 AT TIME STEP      1, STRESS PERIOD    110

 HEAD WILL BE SAVED ON UNIT 1017 AT END OF TIME STEP    1, STRESS PERIOD  110


  VOLUME BUDGET FOR ENTIRE MODEL AT END OF TIME STEP    1, STRESS PERIOD 110
  ---------------------------------------------------------------------------------------------------

     CUMULATIVE VOLUME      L**3       RATES FOR THIS TIME STEP      L**3/T          PACKAGE NAME    
     ------------------                 ------------------------                     ----------------

           IN:                                      IN:
           ---                                      ---
              STO-SS =      183013.5021                STO-SS =         656.2673     STORAGE                          
                 DRN =           0.0000                   DRN =           0.0000     DRN_SYS1                         
                 RIV =       56048.3892                   RIV =         634.1477     RIV_SYS1                         
                 RIV =           0.0000                   RIV =           0.0000     RIV_SYS2                         
                 RCH =      211571.0184                   RCH =        1441.1646     RCH_MSW                          

            TOTAL IN =      450632.9097              TOTAL IN =        2731.5796

          OUT:                                     OUT:
          ----                                     ----
              STO-SS =       15082.6866                STO-SS =           0.0000     STORAGE                          
                 DRN =        9737.5309                   DRN =          61.8477     DRN_SYS1                         
                 RIV =      395991.0009                   RIV =        2497.7443     RIV_SYS1                         
                 RIV =       26463.9770                   RIV =         171.9838     RIV_SYS2                         
                 RCH =        3357.8410                   RCH =           0.0000     RCH_MSW                          

           TOTAL OUT =      450633.0364             TOTAL OUT =        2731.5757

            IN - OUT =          -0.1267              IN - OUT =       3.8775E-03

 PERCENT DISCREPANCY =          -0.00     PERCENT DISCREPANCY =           0.00




         TIME SUMMARY AT END OF TIME STEP    1 IN STRESS PERIOD  110
                    SECONDS     MINUTES      HOURS       DAYS        YEARS
                    -----------------------------------------------------------
   TIME STEP LENGTH  86400.      1440.0      24.000      1.0000     2.73785E-03
 STRESS PERIOD TIME  86400.      1440.0      24.000      1.0000     2.73785E-03
         TOTAL TIME 9.50400E+06 1.58400E+05  2640.0      110.00     0.30116    


end timestep


start timestep kper="111" kstp="1" mode="normal"

 #Stressperiod Save Options

 BEGIN READING OUTPUT CONTROL FOR STRESS PERIOD 111
      ALL TIME STEPS WILL BE SAVED
      ALL TIME STEPS WILL BE SAVED

 END READING OUTPUT CONTROL FOR STRESS PERIOD 111


 PROCESSING STORAGE PERIOD DATA
 END PROCESSING STORAGE PERIOD DATA


 STRESS PERIOD 111 IS TRANSIENT


 REUSING DRNS FROM LAST STRESS PERIOD

 REUSING RIVS FROM LAST STRESS PERIOD

 REUSING RIVS FROM LAST STRESS PERIOD

 REUSING RCHS FROM LAST STRESS PERIOD
 UBDSV06 SAVING              DRN IN MODEL GWF_1            PACKAGE GWF_1           CONNECTED TO MODEL GWF_1            PACKAGE DRN_SYS1         ON UNIT   1018 AT TIME STEP      1, STRESS PERIOD    111
 UBDSV06 SAVING              RIV IN MODEL GWF_1            PACKAGE GWF_1           CONNECTED TO MODEL GWF_1            PACKAGE RIV_SYS1         ON UNIT   1018 AT TIME STEP      1, STRESS PERIOD    111
 UBDSV06 SAVING              RIV IN MODEL GWF_1            PACKAGE GWF_1           CONNECTED TO MODEL GWF_1            PACKAGE RIV_SYS2         ON UNIT   1018 AT TIME STEP      1, STRESS PERIOD    111
 UBDSV06 SAVING              RCH IN MODEL GWF_1            PACKAGE GWF_1           CONNECTED TO MODEL GWF_1            PACKAGE RCH_MSW          ON UNIT   1018 AT TIME STEP      1, STRESS PERIOD    111

 HEAD WILL BE SAVED ON UNIT 1017 AT END OF TIME STEP    1, STRESS PERIOD  111


  VOLUME BUDGET FOR ENTIRE MODEL AT END OF TIME STEP    1, STRESS PERIOD 111
  ---------------------------------------------------------------------------------------------------

     CUMULATIVE VOLUME      L**3       RATES FOR THIS TIME STEP      L**3/T          PACKAGE NAME    
     ------------------                 ------------------------                     ----------------

           IN:                                      IN:
           ---                                      ---
              STO-SS =      183692.7578                STO-SS =         679.2557     STORAGE                          
                 DRN =           0.0000                   DRN =           0.0000     DRN_SYS1                         
                 RIV =       56700.5058                   RIV =         652.1166     RIV_SYS1                         
                 RIV =           0.0000                   RIV =           0.0000     RIV_SYS2                         
                 RCH =      212925.1541                   RCH =        1354.1357     RCH_MSW                          

            TOTAL IN =      453318.4176              TOTAL IN =        2685.5080

          OUT:                                     OUT:
          ----                                     ----
              STO-SS =       15082.6866                STO-SS =           0.0000     STORAGE                          
                 DRN =        9798.2822                   DRN =          60.7514     DRN_SYS1                         
                 RIV =      398446.8596                   RIV =        2455.8587     RIV_SYS1                         
                 RIV =       26632.8751                   RIV =         168.8980     RIV_SYS2                         
                 RCH =        3357.8410                   RCH =           0.0000     RCH_MSW                          

           TOTAL OUT =      453318.5444             TOTAL OUT =        2685.5081

            IN - OUT =          -0.1268              IN - OUT =      -1.2604E-04

 PERCENT DISCREPANCY =          -0.00     PERCENT DISCREPANCY =          -0.00




         TIME SUMMARY AT END OF TIME STEP    1 IN STRESS PERIOD  111
                    SECONDS     MINUTES      HOURS       DAYS        YEARS
                    -----------------------------------------------------------
   TIME STEP LENGTH  86400.      1440.0      24.000      1.0000     2.73785E-03
 STRESS PERIOD TIME  86400.      1440.0      24.000      1.0000     2.73785E-03
         TOTAL TIME 9.59040E+06 1.59840E+05  2664.0      111.00     0.30390    


end timestep


start timestep kper="112" kstp="1" mode="normal"

 #Stressperiod Save Options

 BEGIN READING OUTPUT CONTROL FOR STRESS PERIOD 112
      ALL TIME STEPS WILL BE SAVED
      ALL TIME STEPS WILL BE SAVED

 END READING OUTPUT CONTROL FOR STRESS PERIOD 112


 PROCESSING STORAGE PERIOD DATA
 END PROCESSING STORAGE PERIOD DATA


 STRESS PERIOD 112 IS TRANSIENT


 REUSING DRNS FROM LAST STRESS PERIOD

 REUSING RIVS FROM LAST STRESS PERIOD

 REUSING RIVS FROM LAST STRESS PERIOD

 REUSING RCHS FROM LAST STRESS PERIOD
 UBDSV06 SAVING              DRN IN MODEL GWF_1            PACKAGE GWF_1           CONNECTED TO MODEL GWF_1            PACKAGE DRN_SYS1         ON UNIT   1018 AT TIME STEP      1, STRESS PERIOD    112
 UBDSV06 SAVING              RIV IN MODEL GWF_1            PACKAGE GWF_1           CONNECTED TO MODEL GWF_1            PACKAGE RIV_SYS1         ON UNIT   1018 AT TIME STEP      1, STRESS PERIOD    112
 UBDSV06 SAVING              RIV IN MODEL GWF_1            PACKAGE GWF_1           CONNECTED TO MODEL GWF_1            PACKAGE RIV_SYS2         ON UNIT   1018 AT TIME STEP      1, STRESS PERIOD    112
 UBDSV06 SAVING              RCH IN MODEL GWF_1            PACKAGE GWF_1           CONNECTED TO MODEL GWF_1            PACKAGE RCH_MSW          ON UNIT   1018 AT TIME STEP      1, STRESS PERIOD    112

 HEAD WILL BE SAVED ON UNIT 1017 AT END OF TIME STEP    1, STRESS PERIOD  112


  VOLUME BUDGET FOR ENTIRE MODEL AT END OF TIME STEP    1, STRESS PERIOD 112
  ---------------------------------------------------------------------------------------------------

     CUMULATIVE VOLUME      L**3       RATES FOR THIS TIME STEP      L**3/T          PACKAGE NAME    
     ------------------                 ------------------------                     ----------------

           IN:                                      IN:
           ---                                      ---
              STO-SS =      184389.6172                STO-SS =         696.8594     STORAGE                          
                 DRN =           0.0000                   DRN =           0.0000     DRN_SYS1                         
                 RIV =       57370.1072                   RIV =         669.6014     RIV_SYS1                         
                 RIV =           0.0000                   RIV =           0.0000     RIV_SYS2                         
                 RCH =      214198.7847                   RCH =        1273.6306     RCH_MSW                          

            TOTAL IN =      455958.5091              TOTAL IN =        2640.0914

          OUT:                                     OUT:
          ----                                     ----
              STO-SS =       15082.6866                STO-SS =           0.0000     STORAGE                          
                 DRN =        9857.9086                   DRN =          59.6264     DRN_SYS1                         
                 RIV =      400861.5576                   RIV =        2414.6980     RIV_SYS1                         
                 RIV =       26798.6420                   RIV =         165.7670     RIV_SYS2                         
                 RCH =        3357.8410                   RCH =           0.0000     RCH_MSW                          

           TOTAL OUT =      455958.6358             TOTAL OUT =        2640.0914

            IN - OUT =          -0.1268              IN - OUT =       1.2993E-05

 PERCENT DISCREPANCY =          -0.00     PERCENT DISCREPANCY =           0.00




         TIME SUMMARY AT END OF TIME STEP    1 IN STRESS PERIOD  112
                    SECONDS     MINUTES      HOURS       DAYS        YEARS
                    -----------------------------------------------------------
   TIME STEP LENGTH  86400.      1440.0      24.000      1.0000     2.73785E-03
 STRESS PERIOD TIME  86400.      1440.0      24.000      1.0000     2.73785E-03
         TOTAL TIME 9.67680E+06 1.61280E+05  2688.0      112.00     0.30664    


end timestep


start timestep kper="113" kstp="1" mode="normal"

 #Stressperiod Save Options

 BEGIN READING OUTPUT CONTROL FOR STRESS PERIOD 113
      ALL TIME STEPS WILL BE SAVED
      ALL TIME STEPS WILL BE SAVED

 END READING OUTPUT CONTROL FOR STRESS PERIOD 113


 PROCESSING STORAGE PERIOD DATA
 END PROCESSING STORAGE PERIOD DATA


 STRESS PERIOD 113 IS TRANSIENT


 REUSING DRNS FROM LAST STRESS PERIOD

 REUSING RIVS FROM LAST STRESS PERIOD

 REUSING RIVS FROM LAST STRESS PERIOD

 REUSING RCHS FROM LAST STRESS PERIOD
 UBDSV06 SAVING              DRN IN MODEL GWF_1            PACKAGE GWF_1           CONNECTED TO MODEL GWF_1            PACKAGE DRN_SYS1         ON UNIT   1018 AT TIME STEP      1, STRESS PERIOD    113
 UBDSV06 SAVING              RIV IN MODEL GWF_1            PACKAGE GWF_1           CONNECTED TO MODEL GWF_1            PACKAGE RIV_SYS1         ON UNIT   1018 AT TIME STEP      1, STRESS PERIOD    113
 UBDSV06 SAVING              RIV IN MODEL GWF_1            PACKAGE GWF_1           CONNECTED TO MODEL GWF_1            PACKAGE RIV_SYS2         ON UNIT   1018 AT TIME STEP      1, STRESS PERIOD    113
 UBDSV06 SAVING              RCH IN MODEL GWF_1            PACKAGE GWF_1           CONNECTED TO MODEL GWF_1            PACKAGE RCH_MSW          ON UNIT   1018 AT TIME STEP      1, STRESS PERIOD    113

 HEAD WILL BE SAVED ON UNIT 1017 AT END OF TIME STEP    1, STRESS PERIOD  113


  VOLUME BUDGET FOR ENTIRE MODEL AT END OF TIME STEP    1, STRESS PERIOD 113
  ---------------------------------------------------------------------------------------------------

     CUMULATIVE VOLUME      L**3       RATES FOR THIS TIME STEP      L**3/T          PACKAGE NAME    
     ------------------                 ------------------------                     ----------------

           IN:                                      IN:
           ---                                      ---
              STO-SS =      185100.8942                STO-SS =         711.2770     STORAGE                          
                 DRN =           0.0000                   DRN =           0.0000     DRN_SYS1                         
                 RIV =       58056.9921                   RIV =         686.8849     RIV_SYS1                         
                 RIV =           0.0000                   RIV =           0.0000     RIV_SYS2                         
                 RCH =      215396.1701                   RCH =        1197.3854     RCH_MSW                          

            TOTAL IN =      458554.0564              TOTAL IN =        2595.5473

          OUT:                                     OUT:
          ----                                     ----
              STO-SS =       15082.6866                STO-SS =           0.0000     STORAGE                          
                 DRN =        9916.3900                   DRN =          58.4814     DRN_SYS1                         
                 RIV =      403236.0087                   RIV =        2374.4510     RIV_SYS1                         
                 RIV =       26961.2543                   RIV =         162.6123     RIV_SYS2                         
                 RCH =        3357.8410                   RCH =           0.0000     RCH_MSW                          

           TOTAL OUT =      458554.1806             TOTAL OUT =        2595.5447

            IN - OUT =          -0.1242              IN - OUT =       2.5489E-03

 PERCENT DISCREPANCY =          -0.00     PERCENT DISCREPANCY =           0.00




         TIME SUMMARY AT END OF TIME STEP    1 IN STRESS PERIOD  113
                    SECONDS     MINUTES      HOURS       DAYS        YEARS
                    -----------------------------------------------------------
   TIME STEP LENGTH  86400.      1440.0      24.000      1.0000     2.73785E-03
 STRESS PERIOD TIME  86400.      1440.0      24.000      1.0000     2.73785E-03
         TOTAL TIME 9.76320E+06 1.62720E+05  2712.0      113.00     0.30938    


end timestep


start timestep kper="114" kstp="1" mode="normal"

 #Stressperiod Save Options

 BEGIN READING OUTPUT CONTROL FOR STRESS PERIOD 114
      ALL TIME STEPS WILL BE SAVED
      ALL TIME STEPS WILL BE SAVED

 END READING OUTPUT CONTROL FOR STRESS PERIOD 114


 PROCESSING STORAGE PERIOD DATA
 END PROCESSING STORAGE PERIOD DATA


 STRESS PERIOD 114 IS TRANSIENT


 REUSING DRNS FROM LAST STRESS PERIOD

 REUSING RIVS FROM LAST STRESS PERIOD

 REUSING RIVS FROM LAST STRESS PERIOD

 REUSING RCHS FROM LAST STRESS PERIOD
 UBDSV06 SAVING              DRN IN MODEL GWF_1            PACKAGE GWF_1           CONNECTED TO MODEL GWF_1            PACKAGE DRN_SYS1         ON UNIT   1018 AT TIME STEP      1, STRESS PERIOD    114
 UBDSV06 SAVING              RIV IN MODEL GWF_1            PACKAGE GWF_1           CONNECTED TO MODEL GWF_1            PACKAGE RIV_SYS1         ON UNIT   1018 AT TIME STEP      1, STRESS PERIOD    114
 UBDSV06 SAVING              RIV IN MODEL GWF_1            PACKAGE GWF_1           CONNECTED TO MODEL GWF_1            PACKAGE RIV_SYS2         ON UNIT   1018 AT TIME STEP      1, STRESS PERIOD    114
 UBDSV06 SAVING              RCH IN MODEL GWF_1            PACKAGE GWF_1           CONNECTED TO MODEL GWF_1            PACKAGE RCH_MSW          ON UNIT   1018 AT TIME STEP      1, STRESS PERIOD    114

 HEAD WILL BE SAVED ON UNIT 1017 AT END OF TIME STEP    1, STRESS PERIOD  114


  VOLUME BUDGET FOR ENTIRE MODEL AT END OF TIME STEP    1, STRESS PERIOD 114
  ---------------------------------------------------------------------------------------------------

     CUMULATIVE VOLUME      L**3       RATES FOR THIS TIME STEP      L**3/T          PACKAGE NAME    
     ------------------                 ------------------------                     ----------------

           IN:                                      IN:
           ---                                      ---
              STO-SS =      185820.7010                STO-SS =         719.8068     STORAGE                          
                 DRN =           0.0000                   DRN =           0.0000     DRN_SYS1                         
                 RIV =       58761.5620                   RIV =         704.5699     RIV_SYS1                         
                 RIV =           0.0000                   RIV =           0.0000     RIV_SYS2                         
                 RCH =      216524.7437                   RCH =        1128.5736     RCH_MSW                          

            TOTAL IN =      461107.0067              TOTAL IN =        2552.9504

          OUT:                                     OUT:
          ----                                     ----
              STO-SS =       15082.6866                STO-SS =           0.0000     STORAGE                          
                 DRN =        9973.7156                   DRN =          57.3256     DRN_SYS1                         
                 RIV =      405572.1823                   RIV =        2336.1736     RIV_SYS1                         
                 RIV =       27120.7064                   RIV =         159.4521     RIV_SYS2                         
                 RCH =        3357.8410                   RCH =           0.0000     RCH_MSW                          

           TOTAL OUT =      461107.1318             TOTAL OUT =        2552.9513

            IN - OUT =          -0.1251              IN - OUT =      -8.9708E-04

 PERCENT DISCREPANCY =          -0.00     PERCENT DISCREPANCY =          -0.00




         TIME SUMMARY AT END OF TIME STEP    1 IN STRESS PERIOD  114
                    SECONDS     MINUTES      HOURS       DAYS        YEARS
                    -----------------------------------------------------------
   TIME STEP LENGTH  86400.      1440.0      24.000      1.0000     2.73785E-03
 STRESS PERIOD TIME  86400.      1440.0      24.000      1.0000     2.73785E-03
         TOTAL TIME 9.84960E+06 1.64160E+05  2736.0      114.00     0.31211    


end timestep


start timestep kper="115" kstp="1" mode="normal"

 #Stressperiod Save Options

 BEGIN READING OUTPUT CONTROL FOR STRESS PERIOD 115
      ALL TIME STEPS WILL BE SAVED
      ALL TIME STEPS WILL BE SAVED

 END READING OUTPUT CONTROL FOR STRESS PERIOD 115


 PROCESSING STORAGE PERIOD DATA
 END PROCESSING STORAGE PERIOD DATA


 STRESS PERIOD 115 IS TRANSIENT


 REUSING DRNS FROM LAST STRESS PERIOD

 REUSING RIVS FROM LAST STRESS PERIOD

 REUSING RIVS FROM LAST STRESS PERIOD

 REUSING RCHS FROM LAST STRESS PERIOD
 UBDSV06 SAVING              DRN IN MODEL GWF_1            PACKAGE GWF_1           CONNECTED TO MODEL GWF_1            PACKAGE DRN_SYS1         ON UNIT   1018 AT TIME STEP      1, STRESS PERIOD    115
 UBDSV06 SAVING              RIV IN MODEL GWF_1            PACKAGE GWF_1           CONNECTED TO MODEL GWF_1            PACKAGE RIV_SYS1         ON UNIT   1018 AT TIME STEP      1, STRESS PERIOD    115
 UBDSV06 SAVING              RIV IN MODEL GWF_1            PACKAGE GWF_1           CONNECTED TO MODEL GWF_1            PACKAGE RIV_SYS2         ON UNIT   1018 AT TIME STEP      1, STRESS PERIOD    115
 UBDSV06 SAVING              RCH IN MODEL GWF_1            PACKAGE GWF_1           CONNECTED TO MODEL GWF_1            PACKAGE RCH_MSW          ON UNIT   1018 AT TIME STEP      1, STRESS PERIOD    115

 HEAD WILL BE SAVED ON UNIT 1017 AT END OF TIME STEP    1, STRESS PERIOD  115


  VOLUME BUDGET FOR ENTIRE MODEL AT END OF TIME STEP    1, STRESS PERIOD 115
  ---------------------------------------------------------------------------------------------------

     CUMULATIVE VOLUME      L**3       RATES FOR THIS TIME STEP      L**3/T          PACKAGE NAME    
     ------------------                 ------------------------                     ----------------

           IN:                                      IN:
           ---                                      ---
              STO-SS =      186545.5922                STO-SS =         724.8911     STORAGE                          
                 DRN =           0.0000                   DRN =           0.0000     DRN_SYS1                         
                 RIV =       59483.1027                   RIV =         721.5407     RIV_SYS1                         
                 RIV =           0.0000                   RIV =           0.0000     RIV_SYS2                         
                 RCH =      217589.6887                   RCH =        1064.9450     RCH_MSW                          

            TOTAL IN =      463618.3836              TOTAL IN =        2511.3768

          OUT:                                     OUT:
          ----                                     ----
              STO-SS =       15082.6866                STO-SS =           0.0000     STORAGE                          
                 DRN =       10029.8821                   DRN =          56.1665     DRN_SYS1                         
                 RIV =      407871.0845                   RIV =        2298.9022     RIV_SYS1                         
                 RIV =       27277.0151                   RIV =         156.3087     RIV_SYS2                         
                 RCH =        3357.8410                   RCH =           0.0000     RCH_MSW                          

           TOTAL OUT =      463618.5092             TOTAL OUT =        2511.3773

            IN - OUT =          -0.1256              IN - OUT =      -4.8352E-04

 PERCENT DISCREPANCY =          -0.00     PERCENT DISCREPANCY =          -0.00




         TIME SUMMARY AT END OF TIME STEP    1 IN STRESS PERIOD  115
                    SECONDS     MINUTES      HOURS       DAYS        YEARS
                    -----------------------------------------------------------
   TIME STEP LENGTH  86400.      1440.0      24.000      1.0000     2.73785E-03
 STRESS PERIOD TIME  86400.      1440.0      24.000      1.0000     2.73785E-03
         TOTAL TIME 9.93600E+06 1.65600E+05  2760.0      115.00     0.31485    


end timestep


start timestep kper="116" kstp="1" mode="normal"

 #Stressperiod Save Options

 BEGIN READING OUTPUT CONTROL FOR STRESS PERIOD 116
      ALL TIME STEPS WILL BE SAVED
      ALL TIME STEPS WILL BE SAVED

 END READING OUTPUT CONTROL FOR STRESS PERIOD 116


 PROCESSING STORAGE PERIOD DATA
 END PROCESSING STORAGE PERIOD DATA


 STRESS PERIOD 116 IS TRANSIENT


 REUSING DRNS FROM LAST STRESS PERIOD

 REUSING RIVS FROM LAST STRESS PERIOD

 REUSING RIVS FROM LAST STRESS PERIOD

 REUSING RCHS FROM LAST STRESS PERIOD
 UBDSV06 SAVING              DRN IN MODEL GWF_1            PACKAGE GWF_1           CONNECTED TO MODEL GWF_1            PACKAGE DRN_SYS1         ON UNIT   1018 AT TIME STEP      1, STRESS PERIOD    116
 UBDSV06 SAVING              RIV IN MODEL GWF_1            PACKAGE GWF_1           CONNECTED TO MODEL GWF_1            PACKAGE RIV_SYS1         ON UNIT   1018 AT TIME STEP      1, STRESS PERIOD    116
 UBDSV06 SAVING              RIV IN MODEL GWF_1            PACKAGE GWF_1           CONNECTED TO MODEL GWF_1            PACKAGE RIV_SYS2         ON UNIT   1018 AT TIME STEP      1, STRESS PERIOD    116
 UBDSV06 SAVING              RCH IN MODEL GWF_1            PACKAGE GWF_1           CONNECTED TO MODEL GWF_1            PACKAGE RCH_MSW          ON UNIT   1018 AT TIME STEP      1, STRESS PERIOD    116

 HEAD WILL BE SAVED ON UNIT 1017 AT END OF TIME STEP    1, STRESS PERIOD  116


  VOLUME BUDGET FOR ENTIRE MODEL AT END OF TIME STEP    1, STRESS PERIOD 116
  ---------------------------------------------------------------------------------------------------

     CUMULATIVE VOLUME      L**3       RATES FOR THIS TIME STEP      L**3/T          PACKAGE NAME    
     ------------------                 ------------------------                     ----------------

           IN:                                      IN:
           ---                                      ---
              STO-SS =      187257.9134                STO-SS =         712.3212     STORAGE                          
                 DRN =           0.0000                   DRN =           0.0000     DRN_SYS1                         
                 RIV =       60220.2562                   RIV =         737.1535     RIV_SYS1                         
                 RIV =           0.0000                   RIV =           0.0000     RIV_SYS2                         
                 RCH =      218613.6076                   RCH =        1023.9190     RCH_MSW                          

            TOTAL IN =      466091.7772              TOTAL IN =        2473.3936

          OUT:                                     OUT:
          ----                                     ----
              STO-SS =       15082.6866                STO-SS =           0.0000     STORAGE                          
                 DRN =       10084.8996                   DRN =          55.0175     DRN_SYS1                         
                 RIV =      410136.2447                   RIV =        2265.1602     RIV_SYS1                         
                 RIV =       27430.2317                   RIV =         153.2167     RIV_SYS2                         
                 RCH =        3357.8410                   RCH =           0.0000     RCH_MSW                          

           TOTAL OUT =      466091.9036             TOTAL OUT =        2473.3944

            IN - OUT =          -0.1264              IN - OUT =      -7.5223E-04

 PERCENT DISCREPANCY =          -0.00     PERCENT DISCREPANCY =          -0.00




         TIME SUMMARY AT END OF TIME STEP    1 IN STRESS PERIOD  116
                    SECONDS     MINUTES      HOURS       DAYS        YEARS
                    -----------------------------------------------------------
   TIME STEP LENGTH  86400.      1440.0      24.000      1.0000     2.73785E-03
 STRESS PERIOD TIME  86400.      1440.0      24.000      1.0000     2.73785E-03
         TOTAL TIME 1.00224E+07 1.67040E+05  2784.0      116.00     0.31759    


end timestep


start timestep kper="117" kstp="1" mode="normal"

 #Stressperiod Save Options

 BEGIN READING OUTPUT CONTROL FOR STRESS PERIOD 117
      ALL TIME STEPS WILL BE SAVED
      ALL TIME STEPS WILL BE SAVED

 END READING OUTPUT CONTROL FOR STRESS PERIOD 117


 PROCESSING STORAGE PERIOD DATA
 END PROCESSING STORAGE PERIOD DATA


 STRESS PERIOD 117 IS TRANSIENT


 REUSING DRNS FROM LAST STRESS PERIOD

 REUSING RIVS FROM LAST STRESS PERIOD

 REUSING RIVS FROM LAST STRESS PERIOD

 REUSING RCHS FROM LAST STRESS PERIOD
 UBDSV06 SAVING              DRN IN MODEL GWF_1            PACKAGE GWF_1           CONNECTED TO MODEL GWF_1            PACKAGE DRN_SYS1         ON UNIT   1018 AT TIME STEP      1, STRESS PERIOD    117
 UBDSV06 SAVING              RIV IN MODEL GWF_1            PACKAGE GWF_1           CONNECTED TO MODEL GWF_1            PACKAGE RIV_SYS1         ON UNIT   1018 AT TIME STEP      1, STRESS PERIOD    117
 UBDSV06 SAVING              RIV IN MODEL GWF_1            PACKAGE GWF_1           CONNECTED TO MODEL GWF_1            PACKAGE RIV_SYS2         ON UNIT   1018 AT TIME STEP      1, STRESS PERIOD    117
 UBDSV06 SAVING              RCH IN MODEL GWF_1            PACKAGE GWF_1           CONNECTED TO MODEL GWF_1            PACKAGE RCH_MSW          ON UNIT   1018 AT TIME STEP      1, STRESS PERIOD    117

 HEAD WILL BE SAVED ON UNIT 1017 AT END OF TIME STEP    1, STRESS PERIOD  117


  VOLUME BUDGET FOR ENTIRE MODEL AT END OF TIME STEP    1, STRESS PERIOD 117
  ---------------------------------------------------------------------------------------------------

     CUMULATIVE VOLUME      L**3       RATES FOR THIS TIME STEP      L**3/T          PACKAGE NAME    
     ------------------                 ------------------------                     ----------------

           IN:                                      IN:
           ---                                      ---
              STO-SS =      187968.3613                STO-SS =         710.4479     STORAGE                          
                 DRN =           0.0000                   DRN =           0.0000     DRN_SYS1                         
                 RIV =       60972.6205                   RIV =         752.3643     RIV_SYS1                         
                 RIV =           0.0000                   RIV =           0.0000     RIV_SYS2                         
                 RCH =      219586.8986                   RCH =         973.2910     RCH_MSW                          

            TOTAL IN =      468527.8804              TOTAL IN =        2436.1032

          OUT:                                     OUT:
          ----                                     ----
              STO-SS =       15082.6866                STO-SS =           0.0000     STORAGE                          
                 DRN =       10138.7766                   DRN =          53.8770     DRN_SYS1                         
                 RIV =      412368.3025                   RIV =        2232.0578     RIV_SYS1                         
                 RIV =       27580.3990                   RIV =         150.1673     RIV_SYS2                         
                 RCH =        3357.8410                   RCH =           0.0000     RCH_MSW                          

           TOTAL OUT =      468528.0057             TOTAL OUT =        2436.1021

            IN - OUT =          -0.1253              IN - OUT =       1.0605E-03

 PERCENT DISCREPANCY =          -0.00     PERCENT DISCREPANCY =           0.00




         TIME SUMMARY AT END OF TIME STEP    1 IN STRESS PERIOD  117
                    SECONDS     MINUTES      HOURS       DAYS        YEARS
                    -----------------------------------------------------------
   TIME STEP LENGTH  86400.      1440.0      24.000      1.0000     2.73785E-03
 STRESS PERIOD TIME  86400.      1440.0      24.000      1.0000     2.73785E-03
         TOTAL TIME 1.01088E+07 1.68480E+05  2808.0      117.00     0.32033    


end timestep


start timestep kper="118" kstp="1" mode="normal"

 #Stressperiod Save Options

 BEGIN READING OUTPUT CONTROL FOR STRESS PERIOD 118
      ALL TIME STEPS WILL BE SAVED
      ALL TIME STEPS WILL BE SAVED

 END READING OUTPUT CONTROL FOR STRESS PERIOD 118


 PROCESSING STORAGE PERIOD DATA
 END PROCESSING STORAGE PERIOD DATA


 STRESS PERIOD 118 IS TRANSIENT


 REUSING DRNS FROM LAST STRESS PERIOD

 REUSING RIVS FROM LAST STRESS PERIOD

 REUSING RIVS FROM LAST STRESS PERIOD

 REUSING RCHS FROM LAST STRESS PERIOD
 UBDSV06 SAVING              DRN IN MODEL GWF_1            PACKAGE GWF_1           CONNECTED TO MODEL GWF_1            PACKAGE DRN_SYS1         ON UNIT   1018 AT TIME STEP      1, STRESS PERIOD    118
 UBDSV06 SAVING              RIV IN MODEL GWF_1            PACKAGE GWF_1           CONNECTED TO MODEL GWF_1            PACKAGE RIV_SYS1         ON UNIT   1018 AT TIME STEP      1, STRESS PERIOD    118
 UBDSV06 SAVING              RIV IN MODEL GWF_1            PACKAGE GWF_1           CONNECTED TO MODEL GWF_1            PACKAGE RIV_SYS2         ON UNIT   1018 AT TIME STEP      1, STRESS PERIOD    118
 UBDSV06 SAVING              RCH IN MODEL GWF_1            PACKAGE GWF_1           CONNECTED TO MODEL GWF_1            PACKAGE RCH_MSW          ON UNIT   1018 AT TIME STEP      1, STRESS PERIOD    118

 HEAD WILL BE SAVED ON UNIT 1017 AT END OF TIME STEP    1, STRESS PERIOD  118


  VOLUME BUDGET FOR ENTIRE MODEL AT END OF TIME STEP    1, STRESS PERIOD 118
  ---------------------------------------------------------------------------------------------------

     CUMULATIVE VOLUME      L**3       RATES FOR THIS TIME STEP      L**3/T          PACKAGE NAME    
     ------------------                 ------------------------                     ----------------

           IN:                                      IN:
           ---                                      ---
              STO-SS =      188681.9518                STO-SS =         713.5905     STORAGE                          
                 DRN =           0.0000                   DRN =           0.0000     DRN_SYS1                         
                 RIV =       61739.7528                   RIV =         767.1323     RIV_SYS1                         
                 RIV =           0.0000                   RIV =           0.0000     RIV_SYS2                         
                 RCH =      220504.7835                   RCH =         917.8849     RCH_MSW                          

            TOTAL IN =      470926.4881              TOTAL IN =        2398.6077

          OUT:                                     OUT:
          ----                                     ----
              STO-SS =       15082.6866                STO-SS =           0.0000     STORAGE                          
                 DRN =       10191.5183                   DRN =          52.7416     DRN_SYS1                         
                 RIV =      414567.0185                   RIV =        2198.7159     RIV_SYS1                         
                 RIV =       27727.5488                   RIV =         147.1498     RIV_SYS2                         
                 RCH =        3357.8410                   RCH =           0.0000     RCH_MSW                          

           TOTAL OUT =      470926.6130             TOTAL OUT =        2398.6073

            IN - OUT =          -0.1250              IN - OUT =       3.4011E-04

 PERCENT DISCREPANCY =          -0.00     PERCENT DISCREPANCY =           0.00




         TIME SUMMARY AT END OF TIME STEP    1 IN STRESS PERIOD  118
                    SECONDS     MINUTES      HOURS       DAYS        YEARS
                    -----------------------------------------------------------
   TIME STEP LENGTH  86400.      1440.0      24.000      1.0000     2.73785E-03
 STRESS PERIOD TIME  86400.      1440.0      24.000      1.0000     2.73785E-03
         TOTAL TIME 1.01952E+07 1.69920E+05  2832.0      118.00     0.32307    


end timestep


start timestep kper="119" kstp="1" mode="normal"

 #Stressperiod Save Options

 BEGIN READING OUTPUT CONTROL FOR STRESS PERIOD 119
      ALL TIME STEPS WILL BE SAVED
      ALL TIME STEPS WILL BE SAVED

 END READING OUTPUT CONTROL FOR STRESS PERIOD 119


 PROCESSING STORAGE PERIOD DATA
 END PROCESSING STORAGE PERIOD DATA


 STRESS PERIOD 119 IS TRANSIENT


 REUSING DRNS FROM LAST STRESS PERIOD

 REUSING RIVS FROM LAST STRESS PERIOD

 REUSING RIVS FROM LAST STRESS PERIOD

 REUSING RCHS FROM LAST STRESS PERIOD
 UBDSV06 SAVING              DRN IN MODEL GWF_1            PACKAGE GWF_1           CONNECTED TO MODEL GWF_1            PACKAGE DRN_SYS1         ON UNIT   1018 AT TIME STEP      1, STRESS PERIOD    119
 UBDSV06 SAVING              RIV IN MODEL GWF_1            PACKAGE GWF_1           CONNECTED TO MODEL GWF_1            PACKAGE RIV_SYS1         ON UNIT   1018 AT TIME STEP      1, STRESS PERIOD    119
 UBDSV06 SAVING              RIV IN MODEL GWF_1            PACKAGE GWF_1           CONNECTED TO MODEL GWF_1            PACKAGE RIV_SYS2         ON UNIT   1018 AT TIME STEP      1, STRESS PERIOD    119
 UBDSV06 SAVING              RCH IN MODEL GWF_1            PACKAGE GWF_1           CONNECTED TO MODEL GWF_1            PACKAGE RCH_MSW          ON UNIT   1018 AT TIME STEP      1, STRESS PERIOD    119

 HEAD WILL BE SAVED ON UNIT 1017 AT END OF TIME STEP    1, STRESS PERIOD  119


  VOLUME BUDGET FOR ENTIRE MODEL AT END OF TIME STEP    1, STRESS PERIOD 119
  ---------------------------------------------------------------------------------------------------

     CUMULATIVE VOLUME      L**3       RATES FOR THIS TIME STEP      L**3/T          PACKAGE NAME    
     ------------------                 ------------------------                     ----------------

           IN:                                      IN:
           ---                                      ---
              STO-SS =      189396.3608                STO-SS =         714.4090     STORAGE                          
                 DRN =           0.0000                   DRN =           0.0000     DRN_SYS1                         
                 RIV =       62521.8072                   RIV =         782.0544     RIV_SYS1                         
                 RIV =           0.0000                   RIV =           0.0000     RIV_SYS2                         
                 RCH =      221368.5609                   RCH =         863.7774     RCH_MSW                          

            TOTAL IN =      473286.7288              TOTAL IN =        2360.2407

          OUT:                                     OUT:
          ----                                     ----
              STO-SS =       15082.6866                STO-SS =           0.0000     STORAGE                          
                 DRN =       10243.1387                   DRN =          51.6204     DRN_SYS1                         
                 RIV =      416731.4518                   RIV =        2164.4333     RIV_SYS1                         
                 RIV =       27871.7338                   RIV =         144.1850     RIV_SYS2                         
                 RCH =        3357.8410                   RCH =           0.0000     RCH_MSW                          

           TOTAL OUT =      473286.8518             TOTAL OUT =        2360.2388

            IN - OUT =          -0.1230              IN - OUT =       1.9556E-03

 PERCENT DISCREPANCY =          -0.00     PERCENT DISCREPANCY =           0.00




         TIME SUMMARY AT END OF TIME STEP    1 IN STRESS PERIOD  119
                    SECONDS     MINUTES      HOURS       DAYS        YEARS
                    -----------------------------------------------------------
   TIME STEP LENGTH  86400.      1440.0      24.000      1.0000     2.73785E-03
 STRESS PERIOD TIME  86400.      1440.0      24.000      1.0000     2.73785E-03
         TOTAL TIME 1.02816E+07 1.71360E+05  2856.0      119.00     0.32580    


end timestep


start timestep kper="120" kstp="1" mode="normal"

 #Stressperiod Save Options

 BEGIN READING OUTPUT CONTROL FOR STRESS PERIOD 120
      ALL TIME STEPS WILL BE SAVED
      ALL TIME STEPS WILL BE SAVED

 END READING OUTPUT CONTROL FOR STRESS PERIOD 120


 PROCESSING STORAGE PERIOD DATA
 END PROCESSING STORAGE PERIOD DATA


 STRESS PERIOD 120 IS TRANSIENT


 REUSING DRNS FROM LAST STRESS PERIOD

 REUSING RIVS FROM LAST STRESS PERIOD

 REUSING RIVS FROM LAST STRESS PERIOD

 REUSING RCHS FROM LAST STRESS PERIOD
 UBDSV06 SAVING              DRN IN MODEL GWF_1            PACKAGE GWF_1           CONNECTED TO MODEL GWF_1            PACKAGE DRN_SYS1         ON UNIT   1018 AT TIME STEP      1, STRESS PERIOD    120
 UBDSV06 SAVING              RIV IN MODEL GWF_1            PACKAGE GWF_1           CONNECTED TO MODEL GWF_1            PACKAGE RIV_SYS1         ON UNIT   1018 AT TIME STEP      1, STRESS PERIOD    120
 UBDSV06 SAVING              RIV IN MODEL GWF_1            PACKAGE GWF_1           CONNECTED TO MODEL GWF_1            PACKAGE RIV_SYS2         ON UNIT   1018 AT TIME STEP      1, STRESS PERIOD    120
 UBDSV06 SAVING              RCH IN MODEL GWF_1            PACKAGE GWF_1           CONNECTED TO MODEL GWF_1            PACKAGE RCH_MSW          ON UNIT   1018 AT TIME STEP      1, STRESS PERIOD    120

 HEAD WILL BE SAVED ON UNIT 1017 AT END OF TIME STEP    1, STRESS PERIOD  120


  VOLUME BUDGET FOR ENTIRE MODEL AT END OF TIME STEP    1, STRESS PERIOD 120
  ---------------------------------------------------------------------------------------------------

     CUMULATIVE VOLUME      L**3       RATES FOR THIS TIME STEP      L**3/T          PACKAGE NAME    
     ------------------                 ------------------------                     ----------------

           IN:                                      IN:
           ---                                      ---
              STO-SS =      190103.2455                STO-SS =         706.8847     STORAGE                          
                 DRN =           0.0000                   DRN =           0.0000     DRN_SYS1                         
                 RIV =       63317.9937                   RIV =         796.1865     RIV_SYS1                         
                 RIV =           0.0000                   RIV =           0.0000     RIV_SYS2                         
                 RCH =      222189.3319                   RCH =         820.7710     RCH_MSW                          

            TOTAL IN =      475610.5710              TOTAL IN =        2323.8422

          OUT:                                     OUT:
          ----                                     ----
              STO-SS =       15082.6866                STO-SS =           0.0000     STORAGE                          
                 DRN =       10293.6551                   DRN =          50.5164     DRN_SYS1                         
                 RIV =      418863.4981                   RIV =        2132.0463     RIV_SYS1                         
                 RIV =       28013.0123                   RIV =         141.2785     RIV_SYS2                         
                 RCH =        3357.8410                   RCH =           0.0000     RCH_MSW                          

           TOTAL OUT =      475610.6930             TOTAL OUT =        2323.8412

            IN - OUT =          -0.1220              IN - OUT =       9.8437E-04

 PERCENT DISCREPANCY =          -0.00     PERCENT DISCREPANCY =           0.00




         TIME SUMMARY AT END OF TIME STEP    1 IN STRESS PERIOD  120
                    SECONDS     MINUTES      HOURS       DAYS        YEARS
                    -----------------------------------------------------------
   TIME STEP LENGTH  86400.      1440.0      24.000      1.0000     2.73785E-03
 STRESS PERIOD TIME  86400.      1440.0      24.000      1.0000     2.73785E-03
         TOTAL TIME 1.03680E+07 1.72800E+05  2880.0      120.00     0.32854    


end timestep


start timestep kper="121" kstp="1" mode="normal"

 #Stressperiod Save Options

 BEGIN READING OUTPUT CONTROL FOR STRESS PERIOD 121
      ALL TIME STEPS WILL BE SAVED
      ALL TIME STEPS WILL BE SAVED

 END READING OUTPUT CONTROL FOR STRESS PERIOD 121


 PROCESSING STORAGE PERIOD DATA
 END PROCESSING STORAGE PERIOD DATA


 STRESS PERIOD 121 IS TRANSIENT


 REUSING DRNS FROM LAST STRESS PERIOD

 REUSING RIVS FROM LAST STRESS PERIOD

 REUSING RIVS FROM LAST STRESS PERIOD

 REUSING RCHS FROM LAST STRESS PERIOD
 UBDSV06 SAVING              DRN IN MODEL GWF_1            PACKAGE GWF_1           CONNECTED TO MODEL GWF_1            PACKAGE DRN_SYS1         ON UNIT   1018 AT TIME STEP      1, STRESS PERIOD    121
 UBDSV06 SAVING              RIV IN MODEL GWF_1            PACKAGE GWF_1           CONNECTED TO MODEL GWF_1            PACKAGE RIV_SYS1         ON UNIT   1018 AT TIME STEP      1, STRESS PERIOD    121
 UBDSV06 SAVING              RIV IN MODEL GWF_1            PACKAGE GWF_1           CONNECTED TO MODEL GWF_1            PACKAGE RIV_SYS2         ON UNIT   1018 AT TIME STEP      1, STRESS PERIOD    121
 UBDSV06 SAVING              RCH IN MODEL GWF_1            PACKAGE GWF_1           CONNECTED TO MODEL GWF_1            PACKAGE RCH_MSW          ON UNIT   1018 AT TIME STEP      1, STRESS PERIOD    121

 HEAD WILL BE SAVED ON UNIT 1017 AT END OF TIME STEP    1, STRESS PERIOD  121


  VOLUME BUDGET FOR ENTIRE MODEL AT END OF TIME STEP    1, STRESS PERIOD 121
  ---------------------------------------------------------------------------------------------------

     CUMULATIVE VOLUME      L**3       RATES FOR THIS TIME STEP      L**3/T          PACKAGE NAME    
     ------------------                 ------------------------                     ----------------

           IN:                                      IN:
           ---                                      ---
              STO-SS =      190802.5724                STO-SS =         699.3269     STORAGE                          
                 DRN =           0.0000                   DRN =           0.0000     DRN_SYS1                         
                 RIV =       64127.7167                   RIV =         809.7231     RIV_SYS1                         
                 RIV =           0.0000                   RIV =           0.0000     RIV_SYS2                         
                 RCH =      222969.1218                   RCH =         779.7900     RCH_MSW                          

            TOTAL IN =      477899.4109              TOTAL IN =        2288.8399

          OUT:                                     OUT:
          ----                                     ----
              STO-SS =       15082.6866                STO-SS =           0.0000     STORAGE                          
                 DRN =       10343.0869                   DRN =          49.4319     DRN_SYS1                         
                 RIV =      420964.4683                   RIV =        2100.9702     RIV_SYS1                         
                 RIV =       28151.4504                   RIV =         138.4381     RIV_SYS2                         
                 RCH =        3357.8410                   RCH =           0.0000     RCH_MSW                          

           TOTAL OUT =      477899.5332             TOTAL OUT =        2288.8402

            IN - OUT =          -0.1223              IN - OUT =      -2.4260E-04

 PERCENT DISCREPANCY =          -0.00     PERCENT DISCREPANCY =          -0.00




         TIME SUMMARY AT END OF TIME STEP    1 IN STRESS PERIOD  121
                    SECONDS     MINUTES      HOURS       DAYS        YEARS
                    -----------------------------------------------------------
   TIME STEP LENGTH  86400.      1440.0      24.000      1.0000     2.73785E-03
 STRESS PERIOD TIME  86400.      1440.0      24.000      1.0000     2.73785E-03
         TOTAL TIME 1.04544E+07 1.74240E+05  2904.0      121.00     0.33128    


end timestep


start timestep kper="122" kstp="1" mode="normal"

 #Stressperiod Save Options

 BEGIN READING OUTPUT CONTROL FOR STRESS PERIOD 122
      ALL TIME STEPS WILL BE SAVED
      ALL TIME STEPS WILL BE SAVED

 END READING OUTPUT CONTROL FOR STRESS PERIOD 122


 PROCESSING STORAGE PERIOD DATA
 END PROCESSING STORAGE PERIOD DATA


 STRESS PERIOD 122 IS TRANSIENT


 REUSING DRNS FROM LAST STRESS PERIOD

 REUSING RIVS FROM LAST STRESS PERIOD

 REUSING RIVS FROM LAST STRESS PERIOD

 REUSING RCHS FROM LAST STRESS PERIOD
 UBDSV06 SAVING              DRN IN MODEL GWF_1            PACKAGE GWF_1           CONNECTED TO MODEL GWF_1            PACKAGE DRN_SYS1         ON UNIT   1018 AT TIME STEP      1, STRESS PERIOD    122
 UBDSV06 SAVING              RIV IN MODEL GWF_1            PACKAGE GWF_1           CONNECTED TO MODEL GWF_1            PACKAGE RIV_SYS1         ON UNIT   1018 AT TIME STEP      1, STRESS PERIOD    122
 UBDSV06 SAVING              RIV IN MODEL GWF_1            PACKAGE GWF_1           CONNECTED TO MODEL GWF_1            PACKAGE RIV_SYS2         ON UNIT   1018 AT TIME STEP      1, STRESS PERIOD    122
 UBDSV06 SAVING              RCH IN MODEL GWF_1            PACKAGE GWF_1           CONNECTED TO MODEL GWF_1            PACKAGE RCH_MSW          ON UNIT   1018 AT TIME STEP      1, STRESS PERIOD    122

 HEAD WILL BE SAVED ON UNIT 1017 AT END OF TIME STEP    1, STRESS PERIOD  122


  VOLUME BUDGET FOR ENTIRE MODEL AT END OF TIME STEP    1, STRESS PERIOD 122
  ---------------------------------------------------------------------------------------------------

     CUMULATIVE VOLUME      L**3       RATES FOR THIS TIME STEP      L**3/T          PACKAGE NAME    
     ------------------                 ------------------------                     ----------------

           IN:                                      IN:
           ---                                      ---
              STO-SS =      191494.5071                STO-SS =         691.9348     STORAGE                          
                 DRN =           0.0000                   DRN =           0.0000     DRN_SYS1                         
                 RIV =       64950.4569                   RIV =         822.7401     RIV_SYS1                         
                 RIV =           0.0000                   RIV =           0.0000     RIV_SYS2                         
                 RCH =      223709.4815                   RCH =         740.3597     RCH_MSW                          

            TOTAL IN =      480154.4455              TOTAL IN =        2255.0346

          OUT:                                     OUT:
          ----                                     ----
              STO-SS =       15082.6866                STO-SS =           0.0000     STORAGE                          
                 DRN =       10391.4566                   DRN =          48.3697     DRN_SYS1                         
                 RIV =      423035.4646                   RIV =        2070.9963     RIV_SYS1                         
                 RIV =       28287.1196                   RIV =         135.6692     RIV_SYS2                         
                 RCH =        3357.8410                   RCH =           0.0000     RCH_MSW                          

           TOTAL OUT =      480154.5685             TOTAL OUT =        2255.0353

            IN - OUT =          -0.1229              IN - OUT =      -6.6671E-04

 PERCENT DISCREPANCY =          -0.00     PERCENT DISCREPANCY =          -0.00




         TIME SUMMARY AT END OF TIME STEP    1 IN STRESS PERIOD  122
                    SECONDS     MINUTES      HOURS       DAYS        YEARS
                    -----------------------------------------------------------
   TIME STEP LENGTH  86400.      1440.0      24.000      1.0000     2.73785E-03
 STRESS PERIOD TIME  86400.      1440.0      24.000      1.0000     2.73785E-03
         TOTAL TIME 1.05408E+07 1.75680E+05  2928.0      122.00     0.33402    


end timestep


start timestep kper="123" kstp="1" mode="normal"

 #Stressperiod Save Options

 BEGIN READING OUTPUT CONTROL FOR STRESS PERIOD 123
      ALL TIME STEPS WILL BE SAVED
      ALL TIME STEPS WILL BE SAVED

 END READING OUTPUT CONTROL FOR STRESS PERIOD 123


 PROCESSING STORAGE PERIOD DATA
 END PROCESSING STORAGE PERIOD DATA


 STRESS PERIOD 123 IS TRANSIENT


 REUSING DRNS FROM LAST STRESS PERIOD

 REUSING RIVS FROM LAST STRESS PERIOD

 REUSING RIVS FROM LAST STRESS PERIOD

 REUSING RCHS FROM LAST STRESS PERIOD
 UBDSV06 SAVING              DRN IN MODEL GWF_1            PACKAGE GWF_1           CONNECTED TO MODEL GWF_1            PACKAGE DRN_SYS1         ON UNIT   1018 AT TIME STEP      1, STRESS PERIOD    123
 UBDSV06 SAVING              RIV IN MODEL GWF_1            PACKAGE GWF_1           CONNECTED TO MODEL GWF_1            PACKAGE RIV_SYS1         ON UNIT   1018 AT TIME STEP      1, STRESS PERIOD    123
 UBDSV06 SAVING              RIV IN MODEL GWF_1            PACKAGE GWF_1           CONNECTED TO MODEL GWF_1            PACKAGE RIV_SYS2         ON UNIT   1018 AT TIME STEP      1, STRESS PERIOD    123
 UBDSV06 SAVING              RCH IN MODEL GWF_1            PACKAGE GWF_1           CONNECTED TO MODEL GWF_1            PACKAGE RCH_MSW          ON UNIT   1018 AT TIME STEP      1, STRESS PERIOD    123

 HEAD WILL BE SAVED ON UNIT 1017 AT END OF TIME STEP    1, STRESS PERIOD  123


  VOLUME BUDGET FOR ENTIRE MODEL AT END OF TIME STEP    1, STRESS PERIOD 123
  ---------------------------------------------------------------------------------------------------

     CUMULATIVE VOLUME      L**3       RATES FOR THIS TIME STEP      L**3/T          PACKAGE NAME    
     ------------------                 ------------------------                     ----------------

           IN:                                      IN:
           ---                                      ---
              STO-SS =      192178.6884                STO-SS =         684.1812     STORAGE                          
                 DRN =           0.0000                   DRN =           0.0000     DRN_SYS1                         
                 RIV =       65787.3794                   RIV =         836.9225     RIV_SYS1                         
                 RIV =           0.0000                   RIV =           0.0000     RIV_SYS2                         
                 RCH =      224412.3845                   RCH =         702.9030     RCH_MSW                          

            TOTAL IN =      482378.4523              TOTAL IN =        2224.0068

          OUT:                                     OUT:
          ----                                     ----
              STO-SS =       15082.6866                STO-SS =           0.0000     STORAGE                          
                 DRN =       10438.7895                   DRN =          47.3329     DRN_SYS1                         
                 RIV =      425079.1664                   RIV =        2043.7018     RIV_SYS1                         
                 RIV =       28420.0927                   RIV =         132.9731     RIV_SYS2                         
                 RCH =        3357.8410                   RCH =           0.0000     RCH_MSW                          

           TOTAL OUT =      482378.5762             TOTAL OUT =        2224.0078

            IN - OUT =          -0.1239              IN - OUT =      -1.0045E-03

 PERCENT DISCREPANCY =          -0.00     PERCENT DISCREPANCY =          -0.00




         TIME SUMMARY AT END OF TIME STEP    1 IN STRESS PERIOD  123
                    SECONDS     MINUTES      HOURS       DAYS        YEARS
                    -----------------------------------------------------------
   TIME STEP LENGTH  86400.      1440.0      24.000      1.0000     2.73785E-03
 STRESS PERIOD TIME  86400.      1440.0      24.000      1.0000     2.73785E-03
         TOTAL TIME 1.06272E+07 1.77120E+05  2952.0      123.00     0.33676    


end timestep


start timestep kper="124" kstp="1" mode="normal"

 #Stressperiod Save Options

 BEGIN READING OUTPUT CONTROL FOR STRESS PERIOD 124
      ALL TIME STEPS WILL BE SAVED
      ALL TIME STEPS WILL BE SAVED

 END READING OUTPUT CONTROL FOR STRESS PERIOD 124


 PROCESSING STORAGE PERIOD DATA
 END PROCESSING STORAGE PERIOD DATA


 STRESS PERIOD 124 IS TRANSIENT


 REUSING DRNS FROM LAST STRESS PERIOD

 REUSING RIVS FROM LAST STRESS PERIOD

 REUSING RIVS FROM LAST STRESS PERIOD

 REUSING RCHS FROM LAST STRESS PERIOD
 UBDSV06 SAVING              DRN IN MODEL GWF_1            PACKAGE GWF_1           CONNECTED TO MODEL GWF_1            PACKAGE DRN_SYS1         ON UNIT   1018 AT TIME STEP      1, STRESS PERIOD    124
 UBDSV06 SAVING              RIV IN MODEL GWF_1            PACKAGE GWF_1           CONNECTED TO MODEL GWF_1            PACKAGE RIV_SYS1         ON UNIT   1018 AT TIME STEP      1, STRESS PERIOD    124
 UBDSV06 SAVING              RIV IN MODEL GWF_1            PACKAGE GWF_1           CONNECTED TO MODEL GWF_1            PACKAGE RIV_SYS2         ON UNIT   1018 AT TIME STEP      1, STRESS PERIOD    124
 UBDSV06 SAVING              RCH IN MODEL GWF_1            PACKAGE GWF_1           CONNECTED TO MODEL GWF_1            PACKAGE RCH_MSW          ON UNIT   1018 AT TIME STEP      1, STRESS PERIOD    124

 HEAD WILL BE SAVED ON UNIT 1017 AT END OF TIME STEP    1, STRESS PERIOD  124


  VOLUME BUDGET FOR ENTIRE MODEL AT END OF TIME STEP    1, STRESS PERIOD 124
  ---------------------------------------------------------------------------------------------------

     CUMULATIVE VOLUME      L**3       RATES FOR THIS TIME STEP      L**3/T          PACKAGE NAME    
     ------------------                 ------------------------                     ----------------

           IN:                                      IN:
           ---                                      ---
              STO-SS =      192853.2492                STO-SS =         674.5608     STORAGE                          
                 DRN =           0.0000                   DRN =           0.0000     DRN_SYS1                         
                 RIV =       66638.0140                   RIV =         850.6346     RIV_SYS1                         
                 RIV =           0.0000                   RIV =           0.0000     RIV_SYS2                         
                 RCH =      225081.0713                   RCH =         668.6868     RCH_MSW                          

            TOTAL IN =      484572.3345              TOTAL IN =        2193.8822

          OUT:                                     OUT:
          ----                                     ----
              STO-SS =       15082.6866                STO-SS =           0.0000     STORAGE                          
                 DRN =       10485.1061                   DRN =          46.3166     DRN_SYS1                         
                 RIV =      427096.3908                   RIV =        2017.2244     RIV_SYS1                         
                 RIV =       28550.4311                   RIV =         130.3384     RIV_SYS2                         
                 RCH =        3357.8410                   RCH =           0.0000     RCH_MSW                          

           TOTAL OUT =      484572.4556             TOTAL OUT =        2193.8793

            IN - OUT =          -0.1211              IN - OUT =       2.8521E-03

 PERCENT DISCREPANCY =          -0.00     PERCENT DISCREPANCY =           0.00




         TIME SUMMARY AT END OF TIME STEP    1 IN STRESS PERIOD  124
                    SECONDS     MINUTES      HOURS       DAYS        YEARS
                    -----------------------------------------------------------
   TIME STEP LENGTH  86400.      1440.0      24.000      1.0000     2.73785E-03
 STRESS PERIOD TIME  86400.      1440.0      24.000      1.0000     2.73785E-03
         TOTAL TIME 1.07136E+07 1.78560E+05  2976.0      124.00     0.33949    


end timestep


start timestep kper="125" kstp="1" mode="normal"

 #Stressperiod Save Options

 BEGIN READING OUTPUT CONTROL FOR STRESS PERIOD 125
      ALL TIME STEPS WILL BE SAVED
      ALL TIME STEPS WILL BE SAVED

 END READING OUTPUT CONTROL FOR STRESS PERIOD 125


 PROCESSING STORAGE PERIOD DATA
 END PROCESSING STORAGE PERIOD DATA


 STRESS PERIOD 125 IS TRANSIENT


 REUSING DRNS FROM LAST STRESS PERIOD

 REUSING RIVS FROM LAST STRESS PERIOD

 REUSING RIVS FROM LAST STRESS PERIOD

 REUSING RCHS FROM LAST STRESS PERIOD
 UBDSV06 SAVING              DRN IN MODEL GWF_1            PACKAGE GWF_1           CONNECTED TO MODEL GWF_1            PACKAGE DRN_SYS1         ON UNIT   1018 AT TIME STEP      1, STRESS PERIOD    125
 UBDSV06 SAVING              RIV IN MODEL GWF_1            PACKAGE GWF_1           CONNECTED TO MODEL GWF_1            PACKAGE RIV_SYS1         ON UNIT   1018 AT TIME STEP      1, STRESS PERIOD    125
 UBDSV06 SAVING              RIV IN MODEL GWF_1            PACKAGE GWF_1           CONNECTED TO MODEL GWF_1            PACKAGE RIV_SYS2         ON UNIT   1018 AT TIME STEP      1, STRESS PERIOD    125
 UBDSV06 SAVING              RCH IN MODEL GWF_1            PACKAGE GWF_1           CONNECTED TO MODEL GWF_1            PACKAGE RCH_MSW          ON UNIT   1018 AT TIME STEP      1, STRESS PERIOD    125

 HEAD WILL BE SAVED ON UNIT 1017 AT END OF TIME STEP    1, STRESS PERIOD  125


  VOLUME BUDGET FOR ENTIRE MODEL AT END OF TIME STEP    1, STRESS PERIOD 125
  ---------------------------------------------------------------------------------------------------

     CUMULATIVE VOLUME      L**3       RATES FOR THIS TIME STEP      L**3/T          PACKAGE NAME    
     ------------------                 ------------------------                     ----------------

           IN:                                      IN:
           ---                                      ---
              STO-SS =      193517.7791                STO-SS =         664.5299     STORAGE                          
                 DRN =           0.0000                   DRN =           0.0000     DRN_SYS1                         
                 RIV =       67501.8492                   RIV =         863.8353     RIV_SYS1                         
                 RIV =           0.0000                   RIV =           0.0000     RIV_SYS2                         
                 RCH =      225717.6506                   RCH =         636.5793     RCH_MSW                          

            TOTAL IN =      486737.2790              TOTAL IN =        2164.9445

          OUT:                                     OUT:
          ----                                     ----
              STO-SS =       15082.6866                STO-SS =           0.0000     STORAGE                          
                 DRN =       10530.4284                   DRN =          45.3223     DRN_SYS1                         
                 RIV =      429087.9367                   RIV =        1991.5459     RIV_SYS1                         
                 RIV =       28678.2006                   RIV =         127.7695     RIV_SYS2                         
                 RCH =        3358.1458                   RCH =           0.3049     RCH_MSW                          

           TOTAL OUT =      486737.3982             TOTAL OUT =        2164.9426

            IN - OUT =          -0.1192              IN - OUT =       1.8309E-03

 PERCENT DISCREPANCY =          -0.00     PERCENT DISCREPANCY =           0.00




         TIME SUMMARY AT END OF TIME STEP    1 IN STRESS PERIOD  125
                    SECONDS     MINUTES      HOURS       DAYS        YEARS
                    -----------------------------------------------------------
   TIME STEP LENGTH  86400.      1440.0      24.000      1.0000     2.73785E-03
 STRESS PERIOD TIME  86400.      1440.0      24.000      1.0000     2.73785E-03
         TOTAL TIME 1.08000E+07 1.80000E+05  3000.0      125.00     0.34223    


end timestep


start timestep kper="126" kstp="1" mode="normal"

 #Stressperiod Save Options

 BEGIN READING OUTPUT CONTROL FOR STRESS PERIOD 126
      ALL TIME STEPS WILL BE SAVED
      ALL TIME STEPS WILL BE SAVED

 END READING OUTPUT CONTROL FOR STRESS PERIOD 126


 PROCESSING STORAGE PERIOD DATA
 END PROCESSING STORAGE PERIOD DATA


 STRESS PERIOD 126 IS TRANSIENT


 REUSING DRNS FROM LAST STRESS PERIOD

 REUSING RIVS FROM LAST STRESS PERIOD

 REUSING RIVS FROM LAST STRESS PERIOD

 REUSING RCHS FROM LAST STRESS PERIOD
 UBDSV06 SAVING              DRN IN MODEL GWF_1            PACKAGE GWF_1           CONNECTED TO MODEL GWF_1            PACKAGE DRN_SYS1         ON UNIT   1018 AT TIME STEP      1, STRESS PERIOD    126
 UBDSV06 SAVING              RIV IN MODEL GWF_1            PACKAGE GWF_1           CONNECTED TO MODEL GWF_1            PACKAGE RIV_SYS1         ON UNIT   1018 AT TIME STEP      1, STRESS PERIOD    126
 UBDSV06 SAVING              RIV IN MODEL GWF_1            PACKAGE GWF_1           CONNECTED TO MODEL GWF_1            PACKAGE RIV_SYS2         ON UNIT   1018 AT TIME STEP      1, STRESS PERIOD    126
 UBDSV06 SAVING              RCH IN MODEL GWF_1            PACKAGE GWF_1           CONNECTED TO MODEL GWF_1            PACKAGE RCH_MSW          ON UNIT   1018 AT TIME STEP      1, STRESS PERIOD    126

 HEAD WILL BE SAVED ON UNIT 1017 AT END OF TIME STEP    1, STRESS PERIOD  126


  VOLUME BUDGET FOR ENTIRE MODEL AT END OF TIME STEP    1, STRESS PERIOD 126
  ---------------------------------------------------------------------------------------------------

     CUMULATIVE VOLUME      L**3       RATES FOR THIS TIME STEP      L**3/T          PACKAGE NAME    
     ------------------                 ------------------------                     ----------------

           IN:                                      IN:
           ---                                      ---
              STO-SS =      194144.1312                STO-SS =         626.3521     STORAGE                          
                 DRN =           0.0000                   DRN =           0.0000     DRN_SYS1                         
                 RIV =       68376.8085                   RIV =         874.9592     RIV_SYS1                         
                 RIV =           0.0000                   RIV =           0.0000     RIV_SYS2                         
                 RCH =      226356.3633                   RCH =         638.7127     RCH_MSW                          

            TOTAL IN =      488877.3030              TOTAL IN =        2140.0240

          OUT:                                     OUT:
          ----                                     ----
              STO-SS =       15082.6866                STO-SS =           0.0000     STORAGE                          
                 DRN =       10574.8076                   DRN =          44.3792     DRN_SYS1                         
                 RIV =      431057.5010                   RIV =        1969.5643     RIV_SYS1                         
                 RIV =       28803.5431                   RIV =         125.3424     RIV_SYS2                         
                 RCH =        3358.8834                   RCH =           0.7376     RCH_MSW                          

           TOTAL OUT =      488877.4217             TOTAL OUT =        2140.0235

            IN - OUT =          -0.1187              IN - OUT =       5.4062E-04

 PERCENT DISCREPANCY =          -0.00     PERCENT DISCREPANCY =           0.00




         TIME SUMMARY AT END OF TIME STEP    1 IN STRESS PERIOD  126
                    SECONDS     MINUTES      HOURS       DAYS        YEARS
                    -----------------------------------------------------------
   TIME STEP LENGTH  86400.      1440.0      24.000      1.0000     2.73785E-03
 STRESS PERIOD TIME  86400.      1440.0      24.000      1.0000     2.73785E-03
         TOTAL TIME 1.08864E+07 1.81440E+05  3024.0      126.00     0.34497    


end timestep


start timestep kper="127" kstp="1" mode="normal"

 #Stressperiod Save Options

 BEGIN READING OUTPUT CONTROL FOR STRESS PERIOD 127
      ALL TIME STEPS WILL BE SAVED
      ALL TIME STEPS WILL BE SAVED

 END READING OUTPUT CONTROL FOR STRESS PERIOD 127


 PROCESSING STORAGE PERIOD DATA
 END PROCESSING STORAGE PERIOD DATA


 STRESS PERIOD 127 IS TRANSIENT


 REUSING DRNS FROM LAST STRESS PERIOD

 REUSING RIVS FROM LAST STRESS PERIOD

 REUSING RIVS FROM LAST STRESS PERIOD

 REUSING RCHS FROM LAST STRESS PERIOD
 UBDSV06 SAVING              DRN IN MODEL GWF_1            PACKAGE GWF_1           CONNECTED TO MODEL GWF_1            PACKAGE DRN_SYS1         ON UNIT   1018 AT TIME STEP      1, STRESS PERIOD    127
 UBDSV06 SAVING              RIV IN MODEL GWF_1            PACKAGE GWF_1           CONNECTED TO MODEL GWF_1            PACKAGE RIV_SYS1         ON UNIT   1018 AT TIME STEP      1, STRESS PERIOD    127
 UBDSV06 SAVING              RIV IN MODEL GWF_1            PACKAGE GWF_1           CONNECTED TO MODEL GWF_1            PACKAGE RIV_SYS2         ON UNIT   1018 AT TIME STEP      1, STRESS PERIOD    127
 UBDSV06 SAVING              RCH IN MODEL GWF_1            PACKAGE GWF_1           CONNECTED TO MODEL GWF_1            PACKAGE RCH_MSW          ON UNIT   1018 AT TIME STEP      1, STRESS PERIOD    127

 HEAD WILL BE SAVED ON UNIT 1017 AT END OF TIME STEP    1, STRESS PERIOD  127


  VOLUME BUDGET FOR ENTIRE MODEL AT END OF TIME STEP    1, STRESS PERIOD 127
  ---------------------------------------------------------------------------------------------------

     CUMULATIVE VOLUME      L**3       RATES FOR THIS TIME STEP      L**3/T          PACKAGE NAME    
     ------------------                 ------------------------                     ----------------

           IN:                                      IN:
           ---                                      ---
              STO-SS =      194757.5560                STO-SS =         613.4248     STORAGE                          
                 DRN =           0.0000                   DRN =           0.0000     DRN_SYS1                         
                 RIV =       69262.9068                   RIV =         886.0984     RIV_SYS1                         
                 RIV =           0.0000                   RIV =           0.0000     RIV_SYS2                         
                 RCH =      226971.6248                   RCH =         615.2615     RCH_MSW                          

            TOTAL IN =      490992.0877              TOTAL IN =        2114.7847

          OUT:                                     OUT:
          ----                                     ----
              STO-SS =       15082.6866                STO-SS =           0.0000     STORAGE                          
                 DRN =       10618.2652                   DRN =          43.4576     DRN_SYS1                         
                 RIV =      433004.6667                   RIV =        1947.1657     RIV_SYS1                         
                 RIV =       28926.5285                   RIV =         122.9854     RIV_SYS2                         
                 RCH =        3360.0633                   RCH =           1.1799     RCH_MSW                          

           TOTAL OUT =      490992.2103             TOTAL OUT =        2114.7886

            IN - OUT =          -0.1226              IN - OUT =      -3.8859E-03

 PERCENT DISCREPANCY =          -0.00     PERCENT DISCREPANCY =          -0.00




         TIME SUMMARY AT END OF TIME STEP    1 IN STRESS PERIOD  127
                    SECONDS     MINUTES      HOURS       DAYS        YEARS
                    -----------------------------------------------------------
   TIME STEP LENGTH  86400.      1440.0      24.000      1.0000     2.73785E-03
 STRESS PERIOD TIME  86400.      1440.0      24.000      1.0000     2.73785E-03
         TOTAL TIME 1.09728E+07 1.82880E+05  3048.0      127.00     0.34771    


end timestep


start timestep kper="128" kstp="1" mode="normal"

 #Stressperiod Save Options

 BEGIN READING OUTPUT CONTROL FOR STRESS PERIOD 128
      ALL TIME STEPS WILL BE SAVED
      ALL TIME STEPS WILL BE SAVED

 END READING OUTPUT CONTROL FOR STRESS PERIOD 128


 PROCESSING STORAGE PERIOD DATA
 END PROCESSING STORAGE PERIOD DATA


 STRESS PERIOD 128 IS TRANSIENT


 REUSING DRNS FROM LAST STRESS PERIOD

 REUSING RIVS FROM LAST STRESS PERIOD

 REUSING RIVS FROM LAST STRESS PERIOD

 REUSING RCHS FROM LAST STRESS PERIOD
 UBDSV06 SAVING              DRN IN MODEL GWF_1            PACKAGE GWF_1           CONNECTED TO MODEL GWF_1            PACKAGE DRN_SYS1         ON UNIT   1018 AT TIME STEP      1, STRESS PERIOD    128
 UBDSV06 SAVING              RIV IN MODEL GWF_1            PACKAGE GWF_1           CONNECTED TO MODEL GWF_1            PACKAGE RIV_SYS1         ON UNIT   1018 AT TIME STEP      1, STRESS PERIOD    128
 UBDSV06 SAVING              RIV IN MODEL GWF_1            PACKAGE GWF_1           CONNECTED TO MODEL GWF_1            PACKAGE RIV_SYS2         ON UNIT   1018 AT TIME STEP      1, STRESS PERIOD    128
 UBDSV06 SAVING              RCH IN MODEL GWF_1            PACKAGE GWF_1           CONNECTED TO MODEL GWF_1            PACKAGE RCH_MSW          ON UNIT   1018 AT TIME STEP      1, STRESS PERIOD    128

 HEAD WILL BE SAVED ON UNIT 1017 AT END OF TIME STEP    1, STRESS PERIOD  128


  VOLUME BUDGET FOR ENTIRE MODEL AT END OF TIME STEP    1, STRESS PERIOD 128
  ---------------------------------------------------------------------------------------------------

     CUMULATIVE VOLUME      L**3       RATES FOR THIS TIME STEP      L**3/T          PACKAGE NAME    
     ------------------                 ------------------------                     ----------------

           IN:                                      IN:
           ---                                      ---
              STO-SS =      195358.3155                STO-SS =         600.7595     STORAGE                          
                 DRN =           0.0000                   DRN =           0.0000     DRN_SYS1                         
                 RIV =       70159.9089                   RIV =         897.0021     RIV_SYS1                         
                 RIV =           0.0000                   RIV =           0.0000     RIV_SYS2                         
                 RCH =      227563.8932                   RCH =         592.2683     RCH_MSW                          

            TOTAL IN =      493082.1176              TOTAL IN =        2090.0299

          OUT:                                     OUT:
          ----                                     ----
              STO-SS =       15082.6866                STO-SS =           0.0000     STORAGE                          
                 DRN =       10660.8212                   DRN =          42.5559     DRN_SYS1                         
                 RIV =      434929.7009                   RIV =        1925.0341     RIV_SYS1                         
                 RIV =       29047.2223                   RIV =         120.6938     RIV_SYS2                         
                 RCH =        3361.8101                   RCH =           1.7469     RCH_MSW                          

           TOTAL OUT =      493082.2410             TOTAL OUT =        2090.0307

            IN - OUT =          -0.1234              IN - OUT =      -8.4402E-04

 PERCENT DISCREPANCY =          -0.00     PERCENT DISCREPANCY =          -0.00




         TIME SUMMARY AT END OF TIME STEP    1 IN STRESS PERIOD  128
                    SECONDS     MINUTES      HOURS       DAYS        YEARS
                    -----------------------------------------------------------
   TIME STEP LENGTH  86400.      1440.0      24.000      1.0000     2.73785E-03
 STRESS PERIOD TIME  86400.      1440.0      24.000      1.0000     2.73785E-03
         TOTAL TIME 1.10592E+07 1.84320E+05  3072.0      128.00     0.35044    


end timestep


start timestep kper="129" kstp="1" mode="normal"

 #Stressperiod Save Options

 BEGIN READING OUTPUT CONTROL FOR STRESS PERIOD 129
      ALL TIME STEPS WILL BE SAVED
      ALL TIME STEPS WILL BE SAVED

 END READING OUTPUT CONTROL FOR STRESS PERIOD 129


 PROCESSING STORAGE PERIOD DATA
 END PROCESSING STORAGE PERIOD DATA


 STRESS PERIOD 129 IS TRANSIENT


 REUSING DRNS FROM LAST STRESS PERIOD

 REUSING RIVS FROM LAST STRESS PERIOD

 REUSING RIVS FROM LAST STRESS PERIOD

 REUSING RCHS FROM LAST STRESS PERIOD
 UBDSV06 SAVING              DRN IN MODEL GWF_1            PACKAGE GWF_1           CONNECTED TO MODEL GWF_1            PACKAGE DRN_SYS1         ON UNIT   1018 AT TIME STEP      1, STRESS PERIOD    129
 UBDSV06 SAVING              RIV IN MODEL GWF_1            PACKAGE GWF_1           CONNECTED TO MODEL GWF_1            PACKAGE RIV_SYS1         ON UNIT   1018 AT TIME STEP      1, STRESS PERIOD    129
 UBDSV06 SAVING              RIV IN MODEL GWF_1            PACKAGE GWF_1           CONNECTED TO MODEL GWF_1            PACKAGE RIV_SYS2         ON UNIT   1018 AT TIME STEP      1, STRESS PERIOD    129
 UBDSV06 SAVING              RCH IN MODEL GWF_1            PACKAGE GWF_1           CONNECTED TO MODEL GWF_1            PACKAGE RCH_MSW          ON UNIT   1018 AT TIME STEP      1, STRESS PERIOD    129

 HEAD WILL BE SAVED ON UNIT 1017 AT END OF TIME STEP    1, STRESS PERIOD  129


  VOLUME BUDGET FOR ENTIRE MODEL AT END OF TIME STEP    1, STRESS PERIOD 129
  ---------------------------------------------------------------------------------------------------

     CUMULATIVE VOLUME      L**3       RATES FOR THIS TIME STEP      L**3/T          PACKAGE NAME    
     ------------------                 ------------------------                     ----------------

           IN:                                      IN:
           ---                                      ---
              STO-SS =      195944.8608                STO-SS =         586.5452     STORAGE                          
                 DRN =           0.0000                   DRN =           0.0000     DRN_SYS1                         
                 RIV =       71067.4654                   RIV =         907.5565     RIV_SYS1                         
                 RIV =           0.0000                   RIV =           0.0000     RIV_SYS2                         
                 RCH =      228135.8497                   RCH =         571.9565     RCH_MSW                          

            TOTAL IN =      495148.1758              TOTAL IN =        2066.0582

          OUT:                                     OUT:
          ----                                     ----
              STO-SS =       15082.6866                STO-SS =           0.0000     STORAGE                          
                 DRN =       10702.4985                   DRN =          41.6774     DRN_SYS1                         
                 RIV =      436833.3281                   RIV =        1903.6272     RIV_SYS1                         
                 RIV =       29165.6938                   RIV =         118.4716     RIV_SYS2                         
                 RCH =        3364.0928                   RCH =           2.2827     RCH_MSW                          

           TOTAL OUT =      495148.2999             TOTAL OUT =        2066.0589

            IN - OUT =          -0.1241              IN - OUT =      -6.7888E-04

 PERCENT DISCREPANCY =          -0.00     PERCENT DISCREPANCY =          -0.00




         TIME SUMMARY AT END OF TIME STEP    1 IN STRESS PERIOD  129
                    SECONDS     MINUTES      HOURS       DAYS        YEARS
                    -----------------------------------------------------------
   TIME STEP LENGTH  86400.      1440.0      24.000      1.0000     2.73785E-03
 STRESS PERIOD TIME  86400.      1440.0      24.000      1.0000     2.73785E-03
         TOTAL TIME 1.11456E+07 1.85760E+05  3096.0      129.00     0.35318    


end timestep


start timestep kper="130" kstp="1" mode="normal"

 #Stressperiod Save Options

 BEGIN READING OUTPUT CONTROL FOR STRESS PERIOD 130
      ALL TIME STEPS WILL BE SAVED
      ALL TIME STEPS WILL BE SAVED

 END READING OUTPUT CONTROL FOR STRESS PERIOD 130


 PROCESSING STORAGE PERIOD DATA
 END PROCESSING STORAGE PERIOD DATA


 STRESS PERIOD 130 IS TRANSIENT


 REUSING DRNS FROM LAST STRESS PERIOD

 REUSING RIVS FROM LAST STRESS PERIOD

 REUSING RIVS FROM LAST STRESS PERIOD

 REUSING RCHS FROM LAST STRESS PERIOD
 UBDSV06 SAVING              DRN IN MODEL GWF_1            PACKAGE GWF_1           CONNECTED TO MODEL GWF_1            PACKAGE DRN_SYS1         ON UNIT   1018 AT TIME STEP      1, STRESS PERIOD    130
 UBDSV06 SAVING              RIV IN MODEL GWF_1            PACKAGE GWF_1           CONNECTED TO MODEL GWF_1            PACKAGE RIV_SYS1         ON UNIT   1018 AT TIME STEP      1, STRESS PERIOD    130
 UBDSV06 SAVING              RIV IN MODEL GWF_1            PACKAGE GWF_1           CONNECTED TO MODEL GWF_1            PACKAGE RIV_SYS2         ON UNIT   1018 AT TIME STEP      1, STRESS PERIOD    130
 UBDSV06 SAVING              RCH IN MODEL GWF_1            PACKAGE GWF_1           CONNECTED TO MODEL GWF_1            PACKAGE RCH_MSW          ON UNIT   1018 AT TIME STEP      1, STRESS PERIOD    130

 HEAD WILL BE SAVED ON UNIT 1017 AT END OF TIME STEP    1, STRESS PERIOD  130


  VOLUME BUDGET FOR ENTIRE MODEL AT END OF TIME STEP    1, STRESS PERIOD 130
  ---------------------------------------------------------------------------------------------------

     CUMULATIVE VOLUME      L**3       RATES FOR THIS TIME STEP      L**3/T          PACKAGE NAME    
     ------------------                 ------------------------                     ----------------

           IN:                                      IN:
           ---                                      ---
              STO-SS =      196516.9599                STO-SS =         572.0991     STORAGE                          
                 DRN =           0.0000                   DRN =           0.0000     DRN_SYS1                         
                 RIV =       71985.2247                   RIV =         917.7594     RIV_SYS1                         
                 RIV =           0.0000                   RIV =           0.0000     RIV_SYS2                         
                 RCH =      228688.7275                   RCH =         552.8778     RCH_MSW                          

            TOTAL IN =      497190.9121              TOTAL IN =        2042.7363

          OUT:                                     OUT:
          ----                                     ----
              STO-SS =       15082.6866                STO-SS =           0.0000     STORAGE                          
                 DRN =       10743.3222                   DRN =          40.8237     DRN_SYS1                         
                 RIV =      438716.1449                   RIV =        1882.8168     RIV_SYS1                         
                 RIV =       29282.0152                   RIV =         116.3214     RIV_SYS2                         
                 RCH =        3366.8682                   RCH =           2.7754     RCH_MSW                          

           TOTAL OUT =      497191.0372             TOTAL OUT =        2042.7373

            IN - OUT =          -0.1251              IN - OUT =      -9.6403E-04

 PERCENT DISCREPANCY =          -0.00     PERCENT DISCREPANCY =          -0.00




         TIME SUMMARY AT END OF TIME STEP    1 IN STRESS PERIOD  130
                    SECONDS     MINUTES      HOURS       DAYS        YEARS
                    -----------------------------------------------------------
   TIME STEP LENGTH  86400.      1440.0      24.000      1.0000     2.73785E-03
 STRESS PERIOD TIME  86400.      1440.0      24.000      1.0000     2.73785E-03
         TOTAL TIME 1.12320E+07 1.87200E+05  3120.0      130.00     0.35592    


end timestep


start timestep kper="131" kstp="1" mode="normal"

 #Stressperiod Save Options

 BEGIN READING OUTPUT CONTROL FOR STRESS PERIOD 131
      ALL TIME STEPS WILL BE SAVED
      ALL TIME STEPS WILL BE SAVED

 END READING OUTPUT CONTROL FOR STRESS PERIOD 131


 PROCESSING STORAGE PERIOD DATA
 END PROCESSING STORAGE PERIOD DATA


 STRESS PERIOD 131 IS TRANSIENT


 REUSING DRNS FROM LAST STRESS PERIOD

 REUSING RIVS FROM LAST STRESS PERIOD

 REUSING RIVS FROM LAST STRESS PERIOD

 REUSING RCHS FROM LAST STRESS PERIOD
 UBDSV06 SAVING              DRN IN MODEL GWF_1            PACKAGE GWF_1           CONNECTED TO MODEL GWF_1            PACKAGE DRN_SYS1         ON UNIT   1018 AT TIME STEP      1, STRESS PERIOD    131
 UBDSV06 SAVING              RIV IN MODEL GWF_1            PACKAGE GWF_1           CONNECTED TO MODEL GWF_1            PACKAGE RIV_SYS1         ON UNIT   1018 AT TIME STEP      1, STRESS PERIOD    131
 UBDSV06 SAVING              RIV IN MODEL GWF_1            PACKAGE GWF_1           CONNECTED TO MODEL GWF_1            PACKAGE RIV_SYS2         ON UNIT   1018 AT TIME STEP      1, STRESS PERIOD    131
 UBDSV06 SAVING              RCH IN MODEL GWF_1            PACKAGE GWF_1           CONNECTED TO MODEL GWF_1            PACKAGE RCH_MSW          ON UNIT   1018 AT TIME STEP      1, STRESS PERIOD    131

 HEAD WILL BE SAVED ON UNIT 1017 AT END OF TIME STEP    1, STRESS PERIOD  131


  VOLUME BUDGET FOR ENTIRE MODEL AT END OF TIME STEP    1, STRESS PERIOD 131
  ---------------------------------------------------------------------------------------------------

     CUMULATIVE VOLUME      L**3       RATES FOR THIS TIME STEP      L**3/T          PACKAGE NAME    
     ------------------                 ------------------------                     ----------------

           IN:                                      IN:
           ---                                      ---
              STO-SS =      197074.6625                STO-SS =         557.7027     STORAGE                          
                 DRN =           0.0000                   DRN =           0.0000     DRN_SYS1                         
                 RIV =       72912.9807                   RIV =         927.7560     RIV_SYS1                         
                 RIV =           0.0000                   RIV =           0.0000     RIV_SYS2                         
                 RCH =      229223.3356                   RCH =         534.6082     RCH_MSW                          

            TOTAL IN =      499210.9789              TOTAL IN =        2020.0668

          OUT:                                     OUT:
          ----                                     ----
              STO-SS =       15082.6866                STO-SS =           0.0000     STORAGE                          
                 DRN =       10783.3187                   DRN =          39.9965     DRN_SYS1                         
                 RIV =      440578.5402                   RIV =        1862.3953     RIV_SYS1                         
                 RIV =       29396.2552                   RIV =         114.2400     RIV_SYS2                         
                 RCH =        3370.3033                   RCH =           3.4351     RCH_MSW                          

           TOTAL OUT =      499211.1041             TOTAL OUT =        2020.0669

            IN - OUT =          -0.1251              IN - OUT =      -6.1102E-05

 PERCENT DISCREPANCY =          -0.00     PERCENT DISCREPANCY =          -0.00




         TIME SUMMARY AT END OF TIME STEP    1 IN STRESS PERIOD  131
                    SECONDS     MINUTES      HOURS       DAYS        YEARS
                    -----------------------------------------------------------
   TIME STEP LENGTH  86400.      1440.0      24.000      1.0000     2.73785E-03
 STRESS PERIOD TIME  86400.      1440.0      24.000      1.0000     2.73785E-03
         TOTAL TIME 1.13184E+07 1.88640E+05  3144.0      131.00     0.35866    


end timestep


start timestep kper="132" kstp="1" mode="normal"

 #Stressperiod Save Options

 BEGIN READING OUTPUT CONTROL FOR STRESS PERIOD 132
      ALL TIME STEPS WILL BE SAVED
      ALL TIME STEPS WILL BE SAVED

 END READING OUTPUT CONTROL FOR STRESS PERIOD 132


 PROCESSING STORAGE PERIOD DATA
 END PROCESSING STORAGE PERIOD DATA


 STRESS PERIOD 132 IS TRANSIENT


 REUSING DRNS FROM LAST STRESS PERIOD

 REUSING RIVS FROM LAST STRESS PERIOD

 REUSING RIVS FROM LAST STRESS PERIOD

 REUSING RCHS FROM LAST STRESS PERIOD
 UBDSV06 SAVING              DRN IN MODEL GWF_1            PACKAGE GWF_1           CONNECTED TO MODEL GWF_1            PACKAGE DRN_SYS1         ON UNIT   1018 AT TIME STEP      1, STRESS PERIOD    132
 UBDSV06 SAVING              RIV IN MODEL GWF_1            PACKAGE GWF_1           CONNECTED TO MODEL GWF_1            PACKAGE RIV_SYS1         ON UNIT   1018 AT TIME STEP      1, STRESS PERIOD    132
 UBDSV06 SAVING              RIV IN MODEL GWF_1            PACKAGE GWF_1           CONNECTED TO MODEL GWF_1            PACKAGE RIV_SYS2         ON UNIT   1018 AT TIME STEP      1, STRESS PERIOD    132
 UBDSV06 SAVING              RCH IN MODEL GWF_1            PACKAGE GWF_1           CONNECTED TO MODEL GWF_1            PACKAGE RCH_MSW          ON UNIT   1018 AT TIME STEP      1, STRESS PERIOD    132

 HEAD WILL BE SAVED ON UNIT 1017 AT END OF TIME STEP    1, STRESS PERIOD  132


  VOLUME BUDGET FOR ENTIRE MODEL AT END OF TIME STEP    1, STRESS PERIOD 132
  ---------------------------------------------------------------------------------------------------

     CUMULATIVE VOLUME      L**3       RATES FOR THIS TIME STEP      L**3/T          PACKAGE NAME    
     ------------------                 ------------------------                     ----------------

           IN:                                      IN:
           ---                                      ---
              STO-SS =      197661.1723                STO-SS =         586.5098     STORAGE                          
                 DRN =           0.0000                   DRN =           0.0000     DRN_SYS1                         
                 RIV =       73852.5538                   RIV =         939.5731     RIV_SYS1                         
                 RIV =           0.0000                   RIV =           0.0000     RIV_SYS2                         
                 RCH =      229692.0268                   RCH =         468.6912     RCH_MSW                          

            TOTAL IN =      501205.7529              TOTAL IN =        1994.7740

          OUT:                                     OUT:
          ----                                     ----
              STO-SS =       15082.6866                STO-SS =           0.0000     STORAGE                          
                 DRN =       10822.4763                   DRN =          39.1575     DRN_SYS1                         
                 RIV =      442417.8191                   RIV =        1839.2789     RIV_SYS1                         
                 RIV =       29508.3794                   RIV =         112.1242     RIV_SYS2                         
                 RCH =        3374.5168                   RCH =           4.2135     RCH_MSW                          

           TOTAL OUT =      501205.8782             TOTAL OUT =        1994.7741

            IN - OUT =          -0.1252              IN - OUT =      -9.7625E-05

 PERCENT DISCREPANCY =          -0.00     PERCENT DISCREPANCY =          -0.00




         TIME SUMMARY AT END OF TIME STEP    1 IN STRESS PERIOD  132
                    SECONDS     MINUTES      HOURS       DAYS        YEARS
                    -----------------------------------------------------------
   TIME STEP LENGTH  86400.      1440.0      24.000      1.0000     2.73785E-03
 STRESS PERIOD TIME  86400.      1440.0      24.000      1.0000     2.73785E-03
         TOTAL TIME 1.14048E+07 1.90080E+05  3168.0      132.00     0.36140    


end timestep


start timestep kper="133" kstp="1" mode="normal"

 #Stressperiod Save Options

 BEGIN READING OUTPUT CONTROL FOR STRESS PERIOD 133
      ALL TIME STEPS WILL BE SAVED
      ALL TIME STEPS WILL BE SAVED

 END READING OUTPUT CONTROL FOR STRESS PERIOD 133


 PROCESSING STORAGE PERIOD DATA
 END PROCESSING STORAGE PERIOD DATA


 STRESS PERIOD 133 IS TRANSIENT


 REUSING DRNS FROM LAST STRESS PERIOD

 REUSING RIVS FROM LAST STRESS PERIOD

 REUSING RIVS FROM LAST STRESS PERIOD

 REUSING RCHS FROM LAST STRESS PERIOD
 UBDSV06 SAVING              DRN IN MODEL GWF_1            PACKAGE GWF_1           CONNECTED TO MODEL GWF_1            PACKAGE DRN_SYS1         ON UNIT   1018 AT TIME STEP      1, STRESS PERIOD    133
 UBDSV06 SAVING              RIV IN MODEL GWF_1            PACKAGE GWF_1           CONNECTED TO MODEL GWF_1            PACKAGE RIV_SYS1         ON UNIT   1018 AT TIME STEP      1, STRESS PERIOD    133
 UBDSV06 SAVING              RIV IN MODEL GWF_1            PACKAGE GWF_1           CONNECTED TO MODEL GWF_1            PACKAGE RIV_SYS2         ON UNIT   1018 AT TIME STEP      1, STRESS PERIOD    133
 UBDSV06 SAVING              RCH IN MODEL GWF_1            PACKAGE GWF_1           CONNECTED TO MODEL GWF_1            PACKAGE RCH_MSW          ON UNIT   1018 AT TIME STEP      1, STRESS PERIOD    133

 HEAD WILL BE SAVED ON UNIT 1017 AT END OF TIME STEP    1, STRESS PERIOD  133


  VOLUME BUDGET FOR ENTIRE MODEL AT END OF TIME STEP    1, STRESS PERIOD 133
  ---------------------------------------------------------------------------------------------------

     CUMULATIVE VOLUME      L**3       RATES FOR THIS TIME STEP      L**3/T          PACKAGE NAME    
     ------------------                 ------------------------                     ----------------

           IN:                                      IN:
           ---                                      ---
              STO-SS =      198231.8906                STO-SS =         570.7183     STORAGE                          
                 DRN =           0.0000                   DRN =           0.0000     DRN_SYS1                         
                 RIV =       74802.7621                   RIV =         950.2083     RIV_SYS1                         
                 RIV =           0.0000                   RIV =           0.0000     RIV_SYS2                         
                 RCH =      230142.5124                   RCH =         450.4856     RCH_MSW                          

            TOTAL IN =      503177.1651              TOTAL IN =        1971.4122

          OUT:                                     OUT:
          ----                                     ----
              STO-SS =       15082.6866                STO-SS =           0.0000     STORAGE                          
                 DRN =       10860.8222                   DRN =          38.3459     DRN_SYS1                         
                 RIV =      444235.7256                   RIV =        1817.9065     RIV_SYS1                         
                 RIV =       29618.4547                   RIV =         110.0753     RIV_SYS2                         
                 RCH =        3379.6006                   RCH =           5.0838     RCH_MSW                          

           TOTAL OUT =      503177.2898             TOTAL OUT =        1971.4116

            IN - OUT =          -0.1246              IN - OUT =       5.9747E-04

 PERCENT DISCREPANCY =          -0.00     PERCENT DISCREPANCY =           0.00




         TIME SUMMARY AT END OF TIME STEP    1 IN STRESS PERIOD  133
                    SECONDS     MINUTES      HOURS       DAYS        YEARS
                    -----------------------------------------------------------
   TIME STEP LENGTH  86400.      1440.0      24.000      1.0000     2.73785E-03
 STRESS PERIOD TIME  86400.      1440.0      24.000      1.0000     2.73785E-03
         TOTAL TIME 1.14912E+07 1.91520E+05  3192.0      133.00     0.36413    


end timestep


start timestep kper="134" kstp="1" mode="normal"

 #Stressperiod Save Options

 BEGIN READING OUTPUT CONTROL FOR STRESS PERIOD 134
      ALL TIME STEPS WILL BE SAVED
      ALL TIME STEPS WILL BE SAVED

 END READING OUTPUT CONTROL FOR STRESS PERIOD 134


 PROCESSING STORAGE PERIOD DATA
 END PROCESSING STORAGE PERIOD DATA


 STRESS PERIOD 134 IS TRANSIENT


 REUSING DRNS FROM LAST STRESS PERIOD

 REUSING RIVS FROM LAST STRESS PERIOD

 REUSING RIVS FROM LAST STRESS PERIOD

 REUSING RCHS FROM LAST STRESS PERIOD
 UBDSV06 SAVING              DRN IN MODEL GWF_1            PACKAGE GWF_1           CONNECTED TO MODEL GWF_1            PACKAGE DRN_SYS1         ON UNIT   1018 AT TIME STEP      1, STRESS PERIOD    134
 UBDSV06 SAVING              RIV IN MODEL GWF_1            PACKAGE GWF_1           CONNECTED TO MODEL GWF_1            PACKAGE RIV_SYS1         ON UNIT   1018 AT TIME STEP      1, STRESS PERIOD    134
 UBDSV06 SAVING              RIV IN MODEL GWF_1            PACKAGE GWF_1           CONNECTED TO MODEL GWF_1            PACKAGE RIV_SYS2         ON UNIT   1018 AT TIME STEP      1, STRESS PERIOD    134
 UBDSV06 SAVING              RCH IN MODEL GWF_1            PACKAGE GWF_1           CONNECTED TO MODEL GWF_1            PACKAGE RCH_MSW          ON UNIT   1018 AT TIME STEP      1, STRESS PERIOD    134

 HEAD WILL BE SAVED ON UNIT 1017 AT END OF TIME STEP    1, STRESS PERIOD  134


  VOLUME BUDGET FOR ENTIRE MODEL AT END OF TIME STEP    1, STRESS PERIOD 134
  ---------------------------------------------------------------------------------------------------

     CUMULATIVE VOLUME      L**3       RATES FOR THIS TIME STEP      L**3/T          PACKAGE NAME    
     ------------------                 ------------------------                     ----------------

           IN:                                      IN:
           ---                                      ---
              STO-SS =      198788.0938                STO-SS =         556.2032     STORAGE                          
                 DRN =           0.0000                   DRN =           0.0000     DRN_SYS1                         
                 RIV =       75763.2187                   RIV =         960.4566     RIV_SYS1                         
                 RIV =           0.0000                   RIV =           0.0000     RIV_SYS2                         
                 RCH =      230575.6762                   RCH =         433.1638     RCH_MSW                          

            TOTAL IN =      505126.9887              TOTAL IN =        1949.8236

          OUT:                                     OUT:
          ----                                     ----
              STO-SS =       15082.6866                STO-SS =           0.0000     STORAGE                          
                 DRN =       10898.3803                   DRN =          37.5581     DRN_SYS1                         
                 RIV =      446033.7485                   RIV =        1798.0229     RIV_SYS1                         
                 RIV =       29726.5425                   RIV =         108.0878     RIV_SYS2                         
                 RCH =        3385.7565                   RCH =           6.1559     RCH_MSW                          

           TOTAL OUT =      505127.1144             TOTAL OUT =        1949.8246

            IN - OUT =          -0.1257              IN - OUT =      -1.0292E-03

 PERCENT DISCREPANCY =          -0.00     PERCENT DISCREPANCY =          -0.00




         TIME SUMMARY AT END OF TIME STEP    1 IN STRESS PERIOD  134
                    SECONDS     MINUTES      HOURS       DAYS        YEARS
                    -----------------------------------------------------------
   TIME STEP LENGTH  86400.      1440.0      24.000      1.0000     2.73785E-03
 STRESS PERIOD TIME  86400.      1440.0      24.000      1.0000     2.73785E-03
         TOTAL TIME 1.15776E+07 1.92960E+05  3216.0      134.00     0.36687    


end timestep


start timestep kper="135" kstp="1" mode="normal"

 #Stressperiod Save Options

 BEGIN READING OUTPUT CONTROL FOR STRESS PERIOD 135
      ALL TIME STEPS WILL BE SAVED
      ALL TIME STEPS WILL BE SAVED

 END READING OUTPUT CONTROL FOR STRESS PERIOD 135


 PROCESSING STORAGE PERIOD DATA
 END PROCESSING STORAGE PERIOD DATA


 STRESS PERIOD 135 IS TRANSIENT


 REUSING DRNS FROM LAST STRESS PERIOD

 REUSING RIVS FROM LAST STRESS PERIOD

 REUSING RIVS FROM LAST STRESS PERIOD

 REUSING RCHS FROM LAST STRESS PERIOD
 UBDSV06 SAVING              DRN IN MODEL GWF_1            PACKAGE GWF_1           CONNECTED TO MODEL GWF_1            PACKAGE DRN_SYS1         ON UNIT   1018 AT TIME STEP      1, STRESS PERIOD    135
 UBDSV06 SAVING              RIV IN MODEL GWF_1            PACKAGE GWF_1           CONNECTED TO MODEL GWF_1            PACKAGE RIV_SYS1         ON UNIT   1018 AT TIME STEP      1, STRESS PERIOD    135
 UBDSV06 SAVING              RIV IN MODEL GWF_1            PACKAGE GWF_1           CONNECTED TO MODEL GWF_1            PACKAGE RIV_SYS2         ON UNIT   1018 AT TIME STEP      1, STRESS PERIOD    135
 UBDSV06 SAVING              RCH IN MODEL GWF_1            PACKAGE GWF_1           CONNECTED TO MODEL GWF_1            PACKAGE RCH_MSW          ON UNIT   1018 AT TIME STEP      1, STRESS PERIOD    135

 HEAD WILL BE SAVED ON UNIT 1017 AT END OF TIME STEP    1, STRESS PERIOD  135


  VOLUME BUDGET FOR ENTIRE MODEL AT END OF TIME STEP    1, STRESS PERIOD 135
  ---------------------------------------------------------------------------------------------------

     CUMULATIVE VOLUME      L**3       RATES FOR THIS TIME STEP      L**3/T          PACKAGE NAME    
     ------------------                 ------------------------                     ----------------

           IN:                                      IN:
           ---                                      ---
              STO-SS =      199282.8119                STO-SS =         494.7180     STORAGE                          
                 DRN =           0.0000                   DRN =           0.0000     DRN_SYS1                         
                 RIV =       76730.9856                   RIV =         967.7669     RIV_SYS1                         
                 RIV =           0.0000                   RIV =           0.0000     RIV_SYS2                         
                 RCH =      231045.8277                   RCH =         470.1516     RCH_MSW                          

            TOTAL IN =      507059.6251              TOTAL IN =        1932.6365

          OUT:                                     OUT:
          ----                                     ----
              STO-SS =       15082.6866                STO-SS =           0.0000     STORAGE                          
                 DRN =       10935.2152                   DRN =          36.8349     DRN_SYS1                         
                 RIV =      447816.0806                   RIV =        1782.3321     RIV_SYS1                         
                 RIV =       29832.8308                   RIV =         106.2884     RIV_SYS2                         
                 RCH =        3392.9380                   RCH =           7.1815     RCH_MSW                          

           TOTAL OUT =      507059.7512             TOTAL OUT =        1932.6368

            IN - OUT =          -0.1260              IN - OUT =      -3.7105E-04

 PERCENT DISCREPANCY =          -0.00     PERCENT DISCREPANCY =          -0.00




         TIME SUMMARY AT END OF TIME STEP    1 IN STRESS PERIOD  135
                    SECONDS     MINUTES      HOURS       DAYS        YEARS
                    -----------------------------------------------------------
   TIME STEP LENGTH  86400.      1440.0      24.000      1.0000     2.73785E-03
 STRESS PERIOD TIME  86400.      1440.0      24.000      1.0000     2.73785E-03
         TOTAL TIME 1.16640E+07 1.94400E+05  3240.0      135.00     0.36961    


end timestep


start timestep kper="136" kstp="1" mode="normal"

 #Stressperiod Save Options

 BEGIN READING OUTPUT CONTROL FOR STRESS PERIOD 136
      ALL TIME STEPS WILL BE SAVED
      ALL TIME STEPS WILL BE SAVED

 END READING OUTPUT CONTROL FOR STRESS PERIOD 136


 PROCESSING STORAGE PERIOD DATA
 END PROCESSING STORAGE PERIOD DATA


 STRESS PERIOD 136 IS TRANSIENT


 REUSING DRNS FROM LAST STRESS PERIOD

 REUSING RIVS FROM LAST STRESS PERIOD

 REUSING RIVS FROM LAST STRESS PERIOD

 REUSING RCHS FROM LAST STRESS PERIOD
 UBDSV06 SAVING              DRN IN MODEL GWF_1            PACKAGE GWF_1           CONNECTED TO MODEL GWF_1            PACKAGE DRN_SYS1         ON UNIT   1018 AT TIME STEP      1, STRESS PERIOD    136
 UBDSV06 SAVING              RIV IN MODEL GWF_1            PACKAGE GWF_1           CONNECTED TO MODEL GWF_1            PACKAGE RIV_SYS1         ON UNIT   1018 AT TIME STEP      1, STRESS PERIOD    136
 UBDSV06 SAVING              RIV IN MODEL GWF_1            PACKAGE GWF_1           CONNECTED TO MODEL GWF_1            PACKAGE RIV_SYS2         ON UNIT   1018 AT TIME STEP      1, STRESS PERIOD    136
 UBDSV06 SAVING              RCH IN MODEL GWF_1            PACKAGE GWF_1           CONNECTED TO MODEL GWF_1            PACKAGE RCH_MSW          ON UNIT   1018 AT TIME STEP      1, STRESS PERIOD    136

 HEAD WILL BE SAVED ON UNIT 1017 AT END OF TIME STEP    1, STRESS PERIOD  136


  VOLUME BUDGET FOR ENTIRE MODEL AT END OF TIME STEP    1, STRESS PERIOD 136
  ---------------------------------------------------------------------------------------------------

     CUMULATIVE VOLUME      L**3       RATES FOR THIS TIME STEP      L**3/T          PACKAGE NAME    
     ------------------                 ------------------------                     ----------------

           IN:                                      IN:
           ---                                      ---
              STO-SS =      199766.3867                STO-SS =         483.5749     STORAGE                          
                 DRN =           0.0000                   DRN =           0.0000     DRN_SYS1                         
                 RIV =       77706.5726                   RIV =         975.5871     RIV_SYS1                         
                 RIV =           0.0000                   RIV =           0.0000     RIV_SYS2                         
                 RCH =      231502.1822                   RCH =         456.3545     RCH_MSW                          

            TOTAL IN =      508975.1416              TOTAL IN =        1915.5165

          OUT:                                     OUT:
          ----                                     ----
              STO-SS =       15082.6866                STO-SS =           0.0000     STORAGE                          
                 DRN =       10971.3522                   DRN =          36.1370     DRN_SYS1                         
                 RIV =      449582.7459                   RIV =        1766.6653     RIV_SYS1                         
                 RIV =       29937.3840                   RIV =         104.5532     RIV_SYS2                         
                 RCH =        3401.0994                   RCH =           8.1614     RCH_MSW                          

           TOTAL OUT =      508975.2681             TOTAL OUT =        1915.5169

            IN - OUT =          -0.1265              IN - OUT =      -4.3715E-04

 PERCENT DISCREPANCY =          -0.00     PERCENT DISCREPANCY =          -0.00




         TIME SUMMARY AT END OF TIME STEP    1 IN STRESS PERIOD  136
                    SECONDS     MINUTES      HOURS       DAYS        YEARS
                    -----------------------------------------------------------
   TIME STEP LENGTH  86400.      1440.0      24.000      1.0000     2.73785E-03
 STRESS PERIOD TIME  86400.      1440.0      24.000      1.0000     2.73785E-03
         TOTAL TIME 1.17504E+07 1.95840E+05  3264.0      136.00     0.37235    


end timestep


start timestep kper="137" kstp="1" mode="normal"

 #Stressperiod Save Options

 BEGIN READING OUTPUT CONTROL FOR STRESS PERIOD 137
      ALL TIME STEPS WILL BE SAVED
      ALL TIME STEPS WILL BE SAVED

 END READING OUTPUT CONTROL FOR STRESS PERIOD 137


 PROCESSING STORAGE PERIOD DATA
 END PROCESSING STORAGE PERIOD DATA


 STRESS PERIOD 137 IS TRANSIENT


 REUSING DRNS FROM LAST STRESS PERIOD

 REUSING RIVS FROM LAST STRESS PERIOD

 REUSING RIVS FROM LAST STRESS PERIOD

 REUSING RCHS FROM LAST STRESS PERIOD
 UBDSV06 SAVING              DRN IN MODEL GWF_1            PACKAGE GWF_1           CONNECTED TO MODEL GWF_1            PACKAGE DRN_SYS1         ON UNIT   1018 AT TIME STEP      1, STRESS PERIOD    137
 UBDSV06 SAVING              RIV IN MODEL GWF_1            PACKAGE GWF_1           CONNECTED TO MODEL GWF_1            PACKAGE RIV_SYS1         ON UNIT   1018 AT TIME STEP      1, STRESS PERIOD    137
 UBDSV06 SAVING              RIV IN MODEL GWF_1            PACKAGE GWF_1           CONNECTED TO MODEL GWF_1            PACKAGE RIV_SYS2         ON UNIT   1018 AT TIME STEP      1, STRESS PERIOD    137
 UBDSV06 SAVING              RCH IN MODEL GWF_1            PACKAGE GWF_1           CONNECTED TO MODEL GWF_1            PACKAGE RCH_MSW          ON UNIT   1018 AT TIME STEP      1, STRESS PERIOD    137

 HEAD WILL BE SAVED ON UNIT 1017 AT END OF TIME STEP    1, STRESS PERIOD  137


  VOLUME BUDGET FOR ENTIRE MODEL AT END OF TIME STEP    1, STRESS PERIOD 137
  ---------------------------------------------------------------------------------------------------

     CUMULATIVE VOLUME      L**3       RATES FOR THIS TIME STEP      L**3/T          PACKAGE NAME    
     ------------------                 ------------------------                     ----------------

           IN:                                      IN:
           ---                                      ---
              STO-SS =      200237.5384                STO-SS =         471.1517     STORAGE                          
                 DRN =           0.0000                   DRN =           0.0000     DRN_SYS1                         
                 RIV =       78690.0851                   RIV =         983.5125     RIV_SYS1                         
                 RIV =           0.0000                   RIV =           0.0000     RIV_SYS2                         
                 RCH =      231946.5573                   RCH =         444.3751     RCH_MSW                          

            TOTAL IN =      510874.1809              TOTAL IN =        1899.0393

          OUT:                                     OUT:
          ----                                     ----
              STO-SS =       15082.6866                STO-SS =           0.0000     STORAGE                          
                 DRN =       11006.8133                   DRN =          35.4611     DRN_SYS1                         
                 RIV =      451333.7532                   RIV =        1751.0073     RIV_SYS1                         
                 RIV =       30040.2681                   RIV =         102.8841     RIV_SYS2                         
                 RCH =        3410.7873                   RCH =           9.6879     RCH_MSW                          

           TOTAL OUT =      510874.3085             TOTAL OUT =        1899.0404

            IN - OUT =          -0.1276              IN - OUT =      -1.1506E-03

 PERCENT DISCREPANCY =          -0.00     PERCENT DISCREPANCY =          -0.00




         TIME SUMMARY AT END OF TIME STEP    1 IN STRESS PERIOD  137
                    SECONDS     MINUTES      HOURS       DAYS        YEARS
                    -----------------------------------------------------------
   TIME STEP LENGTH  86400.      1440.0      24.000      1.0000     2.73785E-03
 STRESS PERIOD TIME  86400.      1440.0      24.000      1.0000     2.73785E-03
         TOTAL TIME 1.18368E+07 1.97280E+05  3288.0      137.00     0.37509    


end timestep


start timestep kper="138" kstp="1" mode="normal"

 #Stressperiod Save Options

 BEGIN READING OUTPUT CONTROL FOR STRESS PERIOD 138
      ALL TIME STEPS WILL BE SAVED
      ALL TIME STEPS WILL BE SAVED

 END READING OUTPUT CONTROL FOR STRESS PERIOD 138


 PROCESSING STORAGE PERIOD DATA
 END PROCESSING STORAGE PERIOD DATA


 STRESS PERIOD 138 IS TRANSIENT


 REUSING DRNS FROM LAST STRESS PERIOD

 REUSING RIVS FROM LAST STRESS PERIOD

 REUSING RIVS FROM LAST STRESS PERIOD

 REUSING RCHS FROM LAST STRESS PERIOD
 UBDSV06 SAVING              DRN IN MODEL GWF_1            PACKAGE GWF_1           CONNECTED TO MODEL GWF_1            PACKAGE DRN_SYS1         ON UNIT   1018 AT TIME STEP      1, STRESS PERIOD    138
 UBDSV06 SAVING              RIV IN MODEL GWF_1            PACKAGE GWF_1           CONNECTED TO MODEL GWF_1            PACKAGE RIV_SYS1         ON UNIT   1018 AT TIME STEP      1, STRESS PERIOD    138
 UBDSV06 SAVING              RIV IN MODEL GWF_1            PACKAGE GWF_1           CONNECTED TO MODEL GWF_1            PACKAGE RIV_SYS2         ON UNIT   1018 AT TIME STEP      1, STRESS PERIOD    138
 UBDSV06 SAVING              RCH IN MODEL GWF_1            PACKAGE GWF_1           CONNECTED TO MODEL GWF_1            PACKAGE RCH_MSW          ON UNIT   1018 AT TIME STEP      1, STRESS PERIOD    138

 HEAD WILL BE SAVED ON UNIT 1017 AT END OF TIME STEP    1, STRESS PERIOD  138


  VOLUME BUDGET FOR ENTIRE MODEL AT END OF TIME STEP    1, STRESS PERIOD 138
  ---------------------------------------------------------------------------------------------------

     CUMULATIVE VOLUME      L**3       RATES FOR THIS TIME STEP      L**3/T          PACKAGE NAME    
     ------------------                 ------------------------                     ----------------

           IN:                                      IN:
           ---                                      ---
              STO-SS =      200694.8088                STO-SS =         457.2704     STORAGE                          
                 DRN =           0.0000                   DRN =           0.0000     DRN_SYS1                         
                 RIV =       79681.3239                   RIV =         991.2388     RIV_SYS1                         
                 RIV =           0.0000                   RIV =           0.0000     RIV_SYS2                         
                 RCH =      232380.8901                   RCH =         434.3328     RCH_MSW                          

            TOTAL IN =      512757.0229              TOTAL IN =        1882.8420

          OUT:                                     OUT:
          ----                                     ----
              STO-SS =       15082.6866                STO-SS =           0.0000     STORAGE                          
                 DRN =       11041.6262                   DRN =          34.8129     DRN_SYS1                         
                 RIV =      453069.4163                   RIV =        1735.6631     RIV_SYS1                         
                 RIV =       30141.5425                   RIV =         101.2744     RIV_SYS2                         
                 RCH =        3421.8788                   RCH =          11.0914     RCH_MSW                          

           TOTAL OUT =      512757.1504             TOTAL OUT =        1882.8419

            IN - OUT =          -0.1275              IN - OUT =       9.2662E-05

 PERCENT DISCREPANCY =          -0.00     PERCENT DISCREPANCY =           0.00




         TIME SUMMARY AT END OF TIME STEP    1 IN STRESS PERIOD  138
                    SECONDS     MINUTES      HOURS       DAYS        YEARS
                    -----------------------------------------------------------
   TIME STEP LENGTH  86400.      1440.0      24.000      1.0000     2.73785E-03
 STRESS PERIOD TIME  86400.      1440.0      24.000      1.0000     2.73785E-03
         TOTAL TIME 1.19232E+07 1.98720E+05  3312.0      138.00     0.37782    


end timestep


start timestep kper="139" kstp="1" mode="normal"

 #Stressperiod Save Options

 BEGIN READING OUTPUT CONTROL FOR STRESS PERIOD 139
      ALL TIME STEPS WILL BE SAVED
      ALL TIME STEPS WILL BE SAVED

 END READING OUTPUT CONTROL FOR STRESS PERIOD 139


 PROCESSING STORAGE PERIOD DATA
 END PROCESSING STORAGE PERIOD DATA


 STRESS PERIOD 139 IS TRANSIENT


 REUSING DRNS FROM LAST STRESS PERIOD

 REUSING RIVS FROM LAST STRESS PERIOD

 REUSING RIVS FROM LAST STRESS PERIOD

 REUSING RCHS FROM LAST STRESS PERIOD
 UBDSV06 SAVING              DRN IN MODEL GWF_1            PACKAGE GWF_1           CONNECTED TO MODEL GWF_1            PACKAGE DRN_SYS1         ON UNIT   1018 AT TIME STEP      1, STRESS PERIOD    139
 UBDSV06 SAVING              RIV IN MODEL GWF_1            PACKAGE GWF_1           CONNECTED TO MODEL GWF_1            PACKAGE RIV_SYS1         ON UNIT   1018 AT TIME STEP      1, STRESS PERIOD    139
 UBDSV06 SAVING              RIV IN MODEL GWF_1            PACKAGE GWF_1           CONNECTED TO MODEL GWF_1            PACKAGE RIV_SYS2         ON UNIT   1018 AT TIME STEP      1, STRESS PERIOD    139
 UBDSV06 SAVING              RCH IN MODEL GWF_1            PACKAGE GWF_1           CONNECTED TO MODEL GWF_1            PACKAGE RCH_MSW          ON UNIT   1018 AT TIME STEP      1, STRESS PERIOD    139

 HEAD WILL BE SAVED ON UNIT 1017 AT END OF TIME STEP    1, STRESS PERIOD  139


  VOLUME BUDGET FOR ENTIRE MODEL AT END OF TIME STEP    1, STRESS PERIOD 139
  ---------------------------------------------------------------------------------------------------

     CUMULATIVE VOLUME      L**3       RATES FOR THIS TIME STEP      L**3/T          PACKAGE NAME    
     ------------------                 ------------------------                     ----------------

           IN:                                      IN:
           ---                                      ---
              STO-SS =      201141.5282                STO-SS =         446.7194     STORAGE                          
                 DRN =           0.0000                   DRN =           0.0000     DRN_SYS1                         
                 RIV =       80680.7912                   RIV =         999.4673     RIV_SYS1                         
                 RIV =           0.0000                   RIV =           0.0000     RIV_SYS2                         
                 RCH =      232801.6319                   RCH =         420.7418     RCH_MSW                          

            TOTAL IN =      514623.9514              TOTAL IN =        1866.9285

          OUT:                                     OUT:
          ----                                     ----
              STO-SS =       15082.6866                STO-SS =           0.0000     STORAGE                          
                 DRN =       11075.8180                   DRN =          34.1918     DRN_SYS1                         
                 RIV =      454789.9701                   RIV =        1720.5538     RIV_SYS1                         
                 RIV =       30241.2701                   RIV =          99.7275     RIV_SYS2                         
                 RCH =        3434.3333                   RCH =          12.4545     RCH_MSW                          

           TOTAL OUT =      514624.0781             TOTAL OUT =        1866.9277

            IN - OUT =          -0.1267              IN - OUT =       8.4587E-04

 PERCENT DISCREPANCY =          -0.00     PERCENT DISCREPANCY =           0.00




         TIME SUMMARY AT END OF TIME STEP    1 IN STRESS PERIOD  139
                    SECONDS     MINUTES      HOURS       DAYS        YEARS
                    -----------------------------------------------------------
   TIME STEP LENGTH  86400.      1440.0      24.000      1.0000     2.73785E-03
 STRESS PERIOD TIME  86400.      1440.0      24.000      1.0000     2.73785E-03
         TOTAL TIME 1.20096E+07 2.00160E+05  3336.0      139.00     0.38056    


end timestep


start timestep kper="140" kstp="1" mode="normal"

 #Stressperiod Save Options

 BEGIN READING OUTPUT CONTROL FOR STRESS PERIOD 140
      ALL TIME STEPS WILL BE SAVED
      ALL TIME STEPS WILL BE SAVED

 END READING OUTPUT CONTROL FOR STRESS PERIOD 140


 PROCESSING STORAGE PERIOD DATA
 END PROCESSING STORAGE PERIOD DATA


 STRESS PERIOD 140 IS TRANSIENT


 REUSING DRNS FROM LAST STRESS PERIOD

 REUSING RIVS FROM LAST STRESS PERIOD

 REUSING RIVS FROM LAST STRESS PERIOD

 REUSING RCHS FROM LAST STRESS PERIOD
 UBDSV06 SAVING              DRN IN MODEL GWF_1            PACKAGE GWF_1           CONNECTED TO MODEL GWF_1            PACKAGE DRN_SYS1         ON UNIT   1018 AT TIME STEP      1, STRESS PERIOD    140
 UBDSV06 SAVING              RIV IN MODEL GWF_1            PACKAGE GWF_1           CONNECTED TO MODEL GWF_1            PACKAGE RIV_SYS1         ON UNIT   1018 AT TIME STEP      1, STRESS PERIOD    140
 UBDSV06 SAVING              RIV IN MODEL GWF_1            PACKAGE GWF_1           CONNECTED TO MODEL GWF_1            PACKAGE RIV_SYS2         ON UNIT   1018 AT TIME STEP      1, STRESS PERIOD    140
 UBDSV06 SAVING              RCH IN MODEL GWF_1            PACKAGE GWF_1           CONNECTED TO MODEL GWF_1            PACKAGE RCH_MSW          ON UNIT   1018 AT TIME STEP      1, STRESS PERIOD    140

 HEAD WILL BE SAVED ON UNIT 1017 AT END OF TIME STEP    1, STRESS PERIOD  140


  VOLUME BUDGET FOR ENTIRE MODEL AT END OF TIME STEP    1, STRESS PERIOD 140
  ---------------------------------------------------------------------------------------------------

     CUMULATIVE VOLUME      L**3       RATES FOR THIS TIME STEP      L**3/T          PACKAGE NAME    
     ------------------                 ------------------------                     ----------------

           IN:                                      IN:
           ---                                      ---
              STO-SS =      201577.5718                STO-SS =         436.0436     STORAGE                          
                 DRN =           0.0000                   DRN =           0.0000     DRN_SYS1                         
                 RIV =       81688.0388                   RIV =        1007.2476     RIV_SYS1                         
                 RIV =           0.0000                   RIV =           0.0000     RIV_SYS2                         
                 RCH =      233209.2206                   RCH =         407.5887     RCH_MSW                          

            TOTAL IN =      516474.8312              TOTAL IN =        1850.8799

          OUT:                                     OUT:
          ----                                     ----
              STO-SS =       15082.6866                STO-SS =           0.0000     STORAGE                          
                 DRN =       11109.3964                   DRN =          33.5784     DRN_SYS1                         
                 RIV =      456495.5061                   RIV =        1705.5360     RIV_SYS1                         
                 RIV =       30339.4797                   RIV =          98.2096     RIV_SYS2                         
                 RCH =        3447.8906                   RCH =          13.5573     RCH_MSW                          

           TOTAL OUT =      516474.9593             TOTAL OUT =        1850.8813

            IN - OUT =          -0.1281              IN - OUT =      -1.4076E-03

 PERCENT DISCREPANCY =          -0.00     PERCENT DISCREPANCY =          -0.00




         TIME SUMMARY AT END OF TIME STEP    1 IN STRESS PERIOD  140
                    SECONDS     MINUTES      HOURS       DAYS        YEARS
                    -----------------------------------------------------------
   TIME STEP LENGTH  86400.      1440.0      24.000      1.0000     2.73785E-03
 STRESS PERIOD TIME  86400.      1440.0      24.000      1.0000     2.73785E-03
         TOTAL TIME 1.20960E+07 2.01600E+05  3360.0      140.00     0.38330    


end timestep


start timestep kper="141" kstp="1" mode="normal"

 #Stressperiod Save Options

 BEGIN READING OUTPUT CONTROL FOR STRESS PERIOD 141
      ALL TIME STEPS WILL BE SAVED
      ALL TIME STEPS WILL BE SAVED

 END READING OUTPUT CONTROL FOR STRESS PERIOD 141


 PROCESSING STORAGE PERIOD DATA
 END PROCESSING STORAGE PERIOD DATA


 STRESS PERIOD 141 IS TRANSIENT


 REUSING DRNS FROM LAST STRESS PERIOD

 REUSING RIVS FROM LAST STRESS PERIOD

 REUSING RIVS FROM LAST STRESS PERIOD

 REUSING RCHS FROM LAST STRESS PERIOD
 UBDSV06 SAVING              DRN IN MODEL GWF_1            PACKAGE GWF_1           CONNECTED TO MODEL GWF_1            PACKAGE DRN_SYS1         ON UNIT   1018 AT TIME STEP      1, STRESS PERIOD    141
 UBDSV06 SAVING              RIV IN MODEL GWF_1            PACKAGE GWF_1           CONNECTED TO MODEL GWF_1            PACKAGE RIV_SYS1         ON UNIT   1018 AT TIME STEP      1, STRESS PERIOD    141
 UBDSV06 SAVING              RIV IN MODEL GWF_1            PACKAGE GWF_1           CONNECTED TO MODEL GWF_1            PACKAGE RIV_SYS2         ON UNIT   1018 AT TIME STEP      1, STRESS PERIOD    141
 UBDSV06 SAVING              RCH IN MODEL GWF_1            PACKAGE GWF_1           CONNECTED TO MODEL GWF_1            PACKAGE RCH_MSW          ON UNIT   1018 AT TIME STEP      1, STRESS PERIOD    141

 HEAD WILL BE SAVED ON UNIT 1017 AT END OF TIME STEP    1, STRESS PERIOD  141


  VOLUME BUDGET FOR ENTIRE MODEL AT END OF TIME STEP    1, STRESS PERIOD 141
  ---------------------------------------------------------------------------------------------------

     CUMULATIVE VOLUME      L**3       RATES FOR THIS TIME STEP      L**3/T          PACKAGE NAME    
     ------------------                 ------------------------                     ----------------

           IN:                                      IN:
           ---                                      ---
              STO-SS =      201998.0276                STO-SS =         420.4558     STORAGE                          
                 DRN =           0.0000                   DRN =           0.0000     DRN_SYS1                         
                 RIV =       82702.5416                   RIV =        1014.5028     RIV_SYS1                         
                 RIV =           0.0000                   RIV =           0.0000     RIV_SYS2                         
                 RCH =      233609.1300                   RCH =         399.9093     RCH_MSW                          

            TOTAL IN =      518309.6991              TOTAL IN =        1834.8679

          OUT:                                     OUT:
          ----                                     ----
              STO-SS =       15082.6866                STO-SS =           0.0000     STORAGE                          
                 DRN =       11142.3724                   DRN =          32.9760     DRN_SYS1                         
                 RIV =      458187.0560                   RIV =        1691.5499     RIV_SYS1                         
                 RIV =       30436.1966                   RIV =          96.7170     RIV_SYS2                         
                 RCH =        3461.5168                   RCH =          13.6262     RCH_MSW                          

           TOTAL OUT =      518309.8284             TOTAL OUT =        1834.8691

            IN - OUT =          -0.1292              IN - OUT =      -1.1198E-03

 PERCENT DISCREPANCY =          -0.00     PERCENT DISCREPANCY =          -0.00




         TIME SUMMARY AT END OF TIME STEP    1 IN STRESS PERIOD  141
                    SECONDS     MINUTES      HOURS       DAYS        YEARS
                    -----------------------------------------------------------
   TIME STEP LENGTH  86400.      1440.0      24.000      1.0000     2.73785E-03
 STRESS PERIOD TIME  86400.      1440.0      24.000      1.0000     2.73785E-03
         TOTAL TIME 1.21824E+07 2.03040E+05  3384.0      141.00     0.38604    


end timestep


start timestep kper="142" kstp="1" mode="normal"

 #Stressperiod Save Options

 BEGIN READING OUTPUT CONTROL FOR STRESS PERIOD 142
      ALL TIME STEPS WILL BE SAVED
      ALL TIME STEPS WILL BE SAVED

 END READING OUTPUT CONTROL FOR STRESS PERIOD 142


 PROCESSING STORAGE PERIOD DATA
 END PROCESSING STORAGE PERIOD DATA


 STRESS PERIOD 142 IS TRANSIENT


 REUSING DRNS FROM LAST STRESS PERIOD

 REUSING RIVS FROM LAST STRESS PERIOD

 REUSING RIVS FROM LAST STRESS PERIOD

 REUSING RCHS FROM LAST STRESS PERIOD
 UBDSV06 SAVING              DRN IN MODEL GWF_1            PACKAGE GWF_1           CONNECTED TO MODEL GWF_1            PACKAGE DRN_SYS1         ON UNIT   1018 AT TIME STEP      1, STRESS PERIOD    142
 UBDSV06 SAVING              RIV IN MODEL GWF_1            PACKAGE GWF_1           CONNECTED TO MODEL GWF_1            PACKAGE RIV_SYS1         ON UNIT   1018 AT TIME STEP      1, STRESS PERIOD    142
 UBDSV06 SAVING              RIV IN MODEL GWF_1            PACKAGE GWF_1           CONNECTED TO MODEL GWF_1            PACKAGE RIV_SYS2         ON UNIT   1018 AT TIME STEP      1, STRESS PERIOD    142
 UBDSV06 SAVING              RCH IN MODEL GWF_1            PACKAGE GWF_1           CONNECTED TO MODEL GWF_1            PACKAGE RCH_MSW          ON UNIT   1018 AT TIME STEP      1, STRESS PERIOD    142

 HEAD WILL BE SAVED ON UNIT 1017 AT END OF TIME STEP    1, STRESS PERIOD  142


  VOLUME BUDGET FOR ENTIRE MODEL AT END OF TIME STEP    1, STRESS PERIOD 142
  ---------------------------------------------------------------------------------------------------

     CUMULATIVE VOLUME      L**3       RATES FOR THIS TIME STEP      L**3/T          PACKAGE NAME    
     ------------------                 ------------------------                     ----------------

           IN:                                      IN:
           ---                                      ---
              STO-SS =      202404.4258                STO-SS =         406.3982     STORAGE                          
                 DRN =           0.0000                   DRN =           0.0000     DRN_SYS1                         
                 RIV =       83724.2471                   RIV =        1021.7055     RIV_SYS1                         
                 RIV =           0.0000                   RIV =           0.0000     RIV_SYS2                         
                 RCH =      233999.9110                   RCH =         390.7811     RCH_MSW                          

            TOTAL IN =      520128.5839              TOTAL IN =        1818.8848

          OUT:                                     OUT:
          ----                                     ----
              STO-SS =       15082.6866                STO-SS =           0.0000     STORAGE                          
                 DRN =       11174.7612                   DRN =          32.3888     DRN_SYS1                         
                 RIV =      459865.3316                   RIV =        1678.2756     RIV_SYS1                         
                 RIV =       30531.4588                   RIV =          95.2622     RIV_SYS2                         
                 RCH =        3474.4755                   RCH =          12.9588     RCH_MSW                          

           TOTAL OUT =      520128.7137             TOTAL OUT =        1818.8854

            IN - OUT =          -0.1298              IN - OUT =      -6.1315E-04

 PERCENT DISCREPANCY =          -0.00     PERCENT DISCREPANCY =          -0.00




         TIME SUMMARY AT END OF TIME STEP    1 IN STRESS PERIOD  142
                    SECONDS     MINUTES      HOURS       DAYS        YEARS
                    -----------------------------------------------------------
   TIME STEP LENGTH  86400.      1440.0      24.000      1.0000     2.73785E-03
 STRESS PERIOD TIME  86400.      1440.0      24.000      1.0000     2.73785E-03
         TOTAL TIME 1.22688E+07 2.04480E+05  3408.0      142.00     0.38877    


end timestep


start timestep kper="143" kstp="1" mode="normal"

 #Stressperiod Save Options

 BEGIN READING OUTPUT CONTROL FOR STRESS PERIOD 143
      ALL TIME STEPS WILL BE SAVED
      ALL TIME STEPS WILL BE SAVED

 END READING OUTPUT CONTROL FOR STRESS PERIOD 143


 PROCESSING STORAGE PERIOD DATA
 END PROCESSING STORAGE PERIOD DATA


 STRESS PERIOD 143 IS TRANSIENT


 REUSING DRNS FROM LAST STRESS PERIOD

 REUSING RIVS FROM LAST STRESS PERIOD

 REUSING RIVS FROM LAST STRESS PERIOD

 REUSING RCHS FROM LAST STRESS PERIOD
 UBDSV06 SAVING              DRN IN MODEL GWF_1            PACKAGE GWF_1           CONNECTED TO MODEL GWF_1            PACKAGE DRN_SYS1         ON UNIT   1018 AT TIME STEP      1, STRESS PERIOD    143
 UBDSV06 SAVING              RIV IN MODEL GWF_1            PACKAGE GWF_1           CONNECTED TO MODEL GWF_1            PACKAGE RIV_SYS1         ON UNIT   1018 AT TIME STEP      1, STRESS PERIOD    143
 UBDSV06 SAVING              RIV IN MODEL GWF_1            PACKAGE GWF_1           CONNECTED TO MODEL GWF_1            PACKAGE RIV_SYS2         ON UNIT   1018 AT TIME STEP      1, STRESS PERIOD    143
 UBDSV06 SAVING              RCH IN MODEL GWF_1            PACKAGE GWF_1           CONNECTED TO MODEL GWF_1            PACKAGE RCH_MSW          ON UNIT   1018 AT TIME STEP      1, STRESS PERIOD    143

 HEAD WILL BE SAVED ON UNIT 1017 AT END OF TIME STEP    1, STRESS PERIOD  143


  VOLUME BUDGET FOR ENTIRE MODEL AT END OF TIME STEP    1, STRESS PERIOD 143
  ---------------------------------------------------------------------------------------------------

     CUMULATIVE VOLUME      L**3       RATES FOR THIS TIME STEP      L**3/T          PACKAGE NAME    
     ------------------                 ------------------------                     ----------------

           IN:                                      IN:
           ---                                      ---
              STO-SS =      202794.8000                STO-SS =         390.3743     STORAGE                          
                 DRN =           0.0000                   DRN =           0.0000     DRN_SYS1                         
                 RIV =       84752.5073                   RIV =        1028.2602     RIV_SYS1                         
                 RIV =           0.0000                   RIV =           0.0000     RIV_SYS2                         
                 RCH =      234385.0076                   RCH =         385.0965     RCH_MSW                          

            TOTAL IN =      521932.3149              TOTAL IN =        1803.7310

          OUT:                                     OUT:
          ----                                     ----
              STO-SS =       15082.6866                STO-SS =           0.0000     STORAGE                          
                 DRN =       11206.5806                   DRN =          31.8195     DRN_SYS1                         
                 RIV =      461531.4237                   RIV =        1666.0921     RIV_SYS1                         
                 RIV =       30625.3163                   RIV =          93.8574     RIV_SYS2                         
                 RCH =        3486.4375                   RCH =          11.9620     RCH_MSW                          

           TOTAL OUT =      521932.4447             TOTAL OUT =        1803.7310

            IN - OUT =          -0.1298              IN - OUT =       4.9583E-05

 PERCENT DISCREPANCY =          -0.00     PERCENT DISCREPANCY =           0.00




         TIME SUMMARY AT END OF TIME STEP    1 IN STRESS PERIOD  143
                    SECONDS     MINUTES      HOURS       DAYS        YEARS
                    -----------------------------------------------------------
   TIME STEP LENGTH  86400.      1440.0      24.000      1.0000     2.73785E-03
 STRESS PERIOD TIME  86400.      1440.0      24.000      1.0000     2.73785E-03
         TOTAL TIME 1.23552E+07 2.05920E+05  3432.0      143.00     0.39151    


end timestep


start timestep kper="144" kstp="1" mode="normal"

 #Stressperiod Save Options

 BEGIN READING OUTPUT CONTROL FOR STRESS PERIOD 144
      ALL TIME STEPS WILL BE SAVED
      ALL TIME STEPS WILL BE SAVED

 END READING OUTPUT CONTROL FOR STRESS PERIOD 144


 PROCESSING STORAGE PERIOD DATA
 END PROCESSING STORAGE PERIOD DATA


 STRESS PERIOD 144 IS TRANSIENT


 REUSING DRNS FROM LAST STRESS PERIOD

 REUSING RIVS FROM LAST STRESS PERIOD

 REUSING RIVS FROM LAST STRESS PERIOD

 REUSING RCHS FROM LAST STRESS PERIOD
 UBDSV06 SAVING              DRN IN MODEL GWF_1            PACKAGE GWF_1           CONNECTED TO MODEL GWF_1            PACKAGE DRN_SYS1         ON UNIT   1018 AT TIME STEP      1, STRESS PERIOD    144
 UBDSV06 SAVING              RIV IN MODEL GWF_1            PACKAGE GWF_1           CONNECTED TO MODEL GWF_1            PACKAGE RIV_SYS1         ON UNIT   1018 AT TIME STEP      1, STRESS PERIOD    144
 UBDSV06 SAVING              RIV IN MODEL GWF_1            PACKAGE GWF_1           CONNECTED TO MODEL GWF_1            PACKAGE RIV_SYS2         ON UNIT   1018 AT TIME STEP      1, STRESS PERIOD    144
 UBDSV06 SAVING              RCH IN MODEL GWF_1            PACKAGE GWF_1           CONNECTED TO MODEL GWF_1            PACKAGE RCH_MSW          ON UNIT   1018 AT TIME STEP      1, STRESS PERIOD    144

 HEAD WILL BE SAVED ON UNIT 1017 AT END OF TIME STEP    1, STRESS PERIOD  144


  VOLUME BUDGET FOR ENTIRE MODEL AT END OF TIME STEP    1, STRESS PERIOD 144
  ---------------------------------------------------------------------------------------------------

     CUMULATIVE VOLUME      L**3       RATES FOR THIS TIME STEP      L**3/T          PACKAGE NAME    
     ------------------                 ------------------------                     ----------------

           IN:                                      IN:
           ---                                      ---
              STO-SS =      203170.1873                STO-SS =         375.3873     STORAGE                          
                 DRN =           0.0000                   DRN =           0.0000     DRN_SYS1                         
                 RIV =       85786.9772                   RIV =        1034.4699     RIV_SYS1                         
                 RIV =           0.0000                   RIV =           0.0000     RIV_SYS2                         
                 RCH =      234764.6625                   RCH =         379.6549     RCH_MSW                          

            TOTAL IN =      523721.8271              TOTAL IN =        1789.5121

          OUT:                                     OUT:
          ----                                     ----
              STO-SS =       15082.6866                STO-SS =           0.0000     STORAGE                          
                 DRN =       11237.8510                   DRN =          31.2704     DRN_SYS1                         
                 RIV =      463186.2329                   RIV =        1654.8092     RIV_SYS1                         
                 RIV =       30717.8205                   RIV =          92.5042     RIV_SYS2                         
                 RCH =        3497.3671                   RCH =          10.9296     RCH_MSW                          

           TOTAL OUT =      523721.9580             TOTAL OUT =        1789.5133

            IN - OUT =          -0.1310              IN - OUT =      -1.2072E-03

 PERCENT DISCREPANCY =          -0.00     PERCENT DISCREPANCY =          -0.00




         TIME SUMMARY AT END OF TIME STEP    1 IN STRESS PERIOD  144
                    SECONDS     MINUTES      HOURS       DAYS        YEARS
                    -----------------------------------------------------------
   TIME STEP LENGTH  86400.      1440.0      24.000      1.0000     2.73785E-03
 STRESS PERIOD TIME  86400.      1440.0      24.000      1.0000     2.73785E-03
         TOTAL TIME 1.24416E+07 2.07360E+05  3456.0      144.00     0.39425    


end timestep


start timestep kper="145" kstp="1" mode="normal"

 #Stressperiod Save Options

 BEGIN READING OUTPUT CONTROL FOR STRESS PERIOD 145
      ALL TIME STEPS WILL BE SAVED
      ALL TIME STEPS WILL BE SAVED

 END READING OUTPUT CONTROL FOR STRESS PERIOD 145


 PROCESSING STORAGE PERIOD DATA
 END PROCESSING STORAGE PERIOD DATA


 STRESS PERIOD 145 IS TRANSIENT


 REUSING DRNS FROM LAST STRESS PERIOD

 REUSING RIVS FROM LAST STRESS PERIOD

 REUSING RIVS FROM LAST STRESS PERIOD

 REUSING RCHS FROM LAST STRESS PERIOD
 UBDSV06 SAVING              DRN IN MODEL GWF_1            PACKAGE GWF_1           CONNECTED TO MODEL GWF_1            PACKAGE DRN_SYS1         ON UNIT   1018 AT TIME STEP      1, STRESS PERIOD    145
 UBDSV06 SAVING              RIV IN MODEL GWF_1            PACKAGE GWF_1           CONNECTED TO MODEL GWF_1            PACKAGE RIV_SYS1         ON UNIT   1018 AT TIME STEP      1, STRESS PERIOD    145
 UBDSV06 SAVING              RIV IN MODEL GWF_1            PACKAGE GWF_1           CONNECTED TO MODEL GWF_1            PACKAGE RIV_SYS2         ON UNIT   1018 AT TIME STEP      1, STRESS PERIOD    145
 UBDSV06 SAVING              RCH IN MODEL GWF_1            PACKAGE GWF_1           CONNECTED TO MODEL GWF_1            PACKAGE RCH_MSW          ON UNIT   1018 AT TIME STEP      1, STRESS PERIOD    145

 HEAD WILL BE SAVED ON UNIT 1017 AT END OF TIME STEP    1, STRESS PERIOD  145


  VOLUME BUDGET FOR ENTIRE MODEL AT END OF TIME STEP    1, STRESS PERIOD 145
  ---------------------------------------------------------------------------------------------------

     CUMULATIVE VOLUME      L**3       RATES FOR THIS TIME STEP      L**3/T          PACKAGE NAME    
     ------------------                 ------------------------                     ----------------

           IN:                                      IN:
           ---                                      ---
              STO-SS =      203531.3528                STO-SS =         361.1654     STORAGE                          
                 DRN =           0.0000                   DRN =           0.0000     DRN_SYS1                         
                 RIV =       86827.0721                   RIV =        1040.0949     RIV_SYS1                         
                 RIV =           0.0000                   RIV =           0.0000     RIV_SYS2                         
                 RCH =      235139.0911                   RCH =         374.4286     RCH_MSW                          

            TOTAL IN =      525497.5160              TOTAL IN =        1775.6889

          OUT:                                     OUT:
          ----                                     ----
              STO-SS =       15082.6866                STO-SS =           0.0000     STORAGE                          
                 DRN =       11268.5906                   DRN =          30.7396     DRN_SYS1                         
                 RIV =      464830.3683                   RIV =        1644.1354     RIV_SYS1                         
                 RIV =       30809.0191                   RIV =          91.1986     RIV_SYS2                         
                 RCH =        3506.9832                   RCH =           9.6161     RCH_MSW                          

           TOTAL OUT =      525497.6478             TOTAL OUT =        1775.6897

            IN - OUT =          -0.1318              IN - OUT =      -7.8768E-04

 PERCENT DISCREPANCY =          -0.00     PERCENT DISCREPANCY =          -0.00




         TIME SUMMARY AT END OF TIME STEP    1 IN STRESS PERIOD  145
                    SECONDS     MINUTES      HOURS       DAYS        YEARS
                    -----------------------------------------------------------
   TIME STEP LENGTH  86400.      1440.0      24.000      1.0000     2.73785E-03
 STRESS PERIOD TIME  86400.      1440.0      24.000      1.0000     2.73785E-03
         TOTAL TIME 1.25280E+07 2.08800E+05  3480.0      145.00     0.39699    


end timestep


start timestep kper="146" kstp="1" mode="normal"

 #Stressperiod Save Options

 BEGIN READING OUTPUT CONTROL FOR STRESS PERIOD 146
      ALL TIME STEPS WILL BE SAVED
      ALL TIME STEPS WILL BE SAVED

 END READING OUTPUT CONTROL FOR STRESS PERIOD 146


 PROCESSING STORAGE PERIOD DATA
 END PROCESSING STORAGE PERIOD DATA


 STRESS PERIOD 146 IS TRANSIENT


 REUSING DRNS FROM LAST STRESS PERIOD

 REUSING RIVS FROM LAST STRESS PERIOD

 REUSING RIVS FROM LAST STRESS PERIOD

 REUSING RCHS FROM LAST STRESS PERIOD
 UBDSV06 SAVING              DRN IN MODEL GWF_1            PACKAGE GWF_1           CONNECTED TO MODEL GWF_1            PACKAGE DRN_SYS1         ON UNIT   1018 AT TIME STEP      1, STRESS PERIOD    146
 UBDSV06 SAVING              RIV IN MODEL GWF_1            PACKAGE GWF_1           CONNECTED TO MODEL GWF_1            PACKAGE RIV_SYS1         ON UNIT   1018 AT TIME STEP      1, STRESS PERIOD    146
 UBDSV06 SAVING              RIV IN MODEL GWF_1            PACKAGE GWF_1           CONNECTED TO MODEL GWF_1            PACKAGE RIV_SYS2         ON UNIT   1018 AT TIME STEP      1, STRESS PERIOD    146
 UBDSV06 SAVING              RCH IN MODEL GWF_1            PACKAGE GWF_1           CONNECTED TO MODEL GWF_1            PACKAGE RCH_MSW          ON UNIT   1018 AT TIME STEP      1, STRESS PERIOD    146

 HEAD WILL BE SAVED ON UNIT 1017 AT END OF TIME STEP    1, STRESS PERIOD  146


  VOLUME BUDGET FOR ENTIRE MODEL AT END OF TIME STEP    1, STRESS PERIOD 146
  ---------------------------------------------------------------------------------------------------

     CUMULATIVE VOLUME      L**3       RATES FOR THIS TIME STEP      L**3/T          PACKAGE NAME    
     ------------------                 ------------------------                     ----------------

           IN:                                      IN:
           ---                                      ---
              STO-SS =      203877.2149                STO-SS =         345.8622     STORAGE                          
                 DRN =           0.0000                   DRN =           0.0000     DRN_SYS1                         
                 RIV =       87872.2518                   RIV =        1045.1797     RIV_SYS1                         
                 RIV =           0.0000                   RIV =           0.0000     RIV_SYS2                         
                 RCH =      235510.5175                   RCH =         371.4264     RCH_MSW                          

            TOTAL IN =      527259.9843              TOTAL IN =        1762.4683

          OUT:                                     OUT:
          ----                                     ----
              STO-SS =       15082.6866                STO-SS =           0.0000     STORAGE                          
                 DRN =       11298.8195                   DRN =          30.2290     DRN_SYS1                         
                 RIV =      466464.8351                   RIV =        1634.4669     RIV_SYS1                         
                 RIV =       30898.9673                   RIV =          89.9482     RIV_SYS2                         
                 RCH =        3514.8077                   RCH =           7.8244     RCH_MSW                          

           TOTAL OUT =      527260.1162             TOTAL OUT =        1762.4685

            IN - OUT =          -0.1320              IN - OUT =      -1.9161E-04

 PERCENT DISCREPANCY =          -0.00     PERCENT DISCREPANCY =          -0.00




         TIME SUMMARY AT END OF TIME STEP    1 IN STRESS PERIOD  146
                    SECONDS     MINUTES      HOURS       DAYS        YEARS
                    -----------------------------------------------------------
   TIME STEP LENGTH  86400.      1440.0      24.000      1.0000     2.73785E-03
 STRESS PERIOD TIME  86400.      1440.0      24.000      1.0000     2.73785E-03
         TOTAL TIME 1.26144E+07 2.10240E+05  3504.0      146.00     0.39973    


end timestep


start timestep kper="147" kstp="1" mode="normal"

 #Stressperiod Save Options

 BEGIN READING OUTPUT CONTROL FOR STRESS PERIOD 147
      ALL TIME STEPS WILL BE SAVED
      ALL TIME STEPS WILL BE SAVED

 END READING OUTPUT CONTROL FOR STRESS PERIOD 147


 PROCESSING STORAGE PERIOD DATA
 END PROCESSING STORAGE PERIOD DATA


 STRESS PERIOD 147 IS TRANSIENT


 REUSING DRNS FROM LAST STRESS PERIOD

 REUSING RIVS FROM LAST STRESS PERIOD

 REUSING RIVS FROM LAST STRESS PERIOD

 REUSING RCHS FROM LAST STRESS PERIOD
 UBDSV06 SAVING              DRN IN MODEL GWF_1            PACKAGE GWF_1           CONNECTED TO MODEL GWF_1            PACKAGE DRN_SYS1         ON UNIT   1018 AT TIME STEP      1, STRESS PERIOD    147
 UBDSV06 SAVING              RIV IN MODEL GWF_1            PACKAGE GWF_1           CONNECTED TO MODEL GWF_1            PACKAGE RIV_SYS1         ON UNIT   1018 AT TIME STEP      1, STRESS PERIOD    147
 UBDSV06 SAVING              RIV IN MODEL GWF_1            PACKAGE GWF_1           CONNECTED TO MODEL GWF_1            PACKAGE RIV_SYS2         ON UNIT   1018 AT TIME STEP      1, STRESS PERIOD    147
 UBDSV06 SAVING              RCH IN MODEL GWF_1            PACKAGE GWF_1           CONNECTED TO MODEL GWF_1            PACKAGE RCH_MSW          ON UNIT   1018 AT TIME STEP      1, STRESS PERIOD    147

 HEAD WILL BE SAVED ON UNIT 1017 AT END OF TIME STEP    1, STRESS PERIOD  147


  VOLUME BUDGET FOR ENTIRE MODEL AT END OF TIME STEP    1, STRESS PERIOD 147
  ---------------------------------------------------------------------------------------------------

     CUMULATIVE VOLUME      L**3       RATES FOR THIS TIME STEP      L**3/T          PACKAGE NAME    
     ------------------                 ------------------------                     ----------------

           IN:                                      IN:
           ---                                      ---
              STO-SS =      204209.2747                STO-SS =         332.0598     STORAGE                          
                 DRN =           0.0000                   DRN =           0.0000     DRN_SYS1                         
                 RIV =       88921.9521                   RIV =        1049.7003     RIV_SYS1                         
                 RIV =           0.0000                   RIV =           0.0000     RIV_SYS2                         
                 RCH =      235878.9931                   RCH =         368.4756     RCH_MSW                          

            TOTAL IN =      529010.2199              TOTAL IN =        1750.2357

          OUT:                                     OUT:
          ----                                     ----
              STO-SS =       15082.6866                STO-SS =           0.0000     STORAGE                          
                 DRN =       11328.5565                   DRN =          29.7369     DRN_SYS1                         
                 RIV =      468090.2772                   RIV =        1625.4421     RIV_SYS1                         
                 RIV =       30987.7150                   RIV =          88.7477     RIV_SYS2                         
                 RCH =        3521.1176                   RCH =           6.3099     RCH_MSW                          

           TOTAL OUT =      529010.3528             TOTAL OUT =        1750.2366

            IN - OUT =          -0.1329              IN - OUT =      -9.3126E-04

 PERCENT DISCREPANCY =          -0.00     PERCENT DISCREPANCY =          -0.00




         TIME SUMMARY AT END OF TIME STEP    1 IN STRESS PERIOD  147
                    SECONDS     MINUTES      HOURS       DAYS        YEARS
                    -----------------------------------------------------------
   TIME STEP LENGTH  86400.      1440.0      24.000      1.0000     2.73785E-03
 STRESS PERIOD TIME  86400.      1440.0      24.000      1.0000     2.73785E-03
         TOTAL TIME 1.27008E+07 2.11680E+05  3528.0      147.00     0.40246    


end timestep


start timestep kper="148" kstp="1" mode="normal"

 #Stressperiod Save Options

 BEGIN READING OUTPUT CONTROL FOR STRESS PERIOD 148
      ALL TIME STEPS WILL BE SAVED
      ALL TIME STEPS WILL BE SAVED

 END READING OUTPUT CONTROL FOR STRESS PERIOD 148


 PROCESSING STORAGE PERIOD DATA
 END PROCESSING STORAGE PERIOD DATA


 STRESS PERIOD 148 IS TRANSIENT


 REUSING DRNS FROM LAST STRESS PERIOD

 REUSING RIVS FROM LAST STRESS PERIOD

 REUSING RIVS FROM LAST STRESS PERIOD

 REUSING RCHS FROM LAST STRESS PERIOD
 UBDSV06 SAVING              DRN IN MODEL GWF_1            PACKAGE GWF_1           CONNECTED TO MODEL GWF_1            PACKAGE DRN_SYS1         ON UNIT   1018 AT TIME STEP      1, STRESS PERIOD    148
 UBDSV06 SAVING              RIV IN MODEL GWF_1            PACKAGE GWF_1           CONNECTED TO MODEL GWF_1            PACKAGE RIV_SYS1         ON UNIT   1018 AT TIME STEP      1, STRESS PERIOD    148
 UBDSV06 SAVING              RIV IN MODEL GWF_1            PACKAGE GWF_1           CONNECTED TO MODEL GWF_1            PACKAGE RIV_SYS2         ON UNIT   1018 AT TIME STEP      1, STRESS PERIOD    148
 UBDSV06 SAVING              RCH IN MODEL GWF_1            PACKAGE GWF_1           CONNECTED TO MODEL GWF_1            PACKAGE RCH_MSW          ON UNIT   1018 AT TIME STEP      1, STRESS PERIOD    148

 HEAD WILL BE SAVED ON UNIT 1017 AT END OF TIME STEP    1, STRESS PERIOD  148


  VOLUME BUDGET FOR ENTIRE MODEL AT END OF TIME STEP    1, STRESS PERIOD 148
  ---------------------------------------------------------------------------------------------------

     CUMULATIVE VOLUME      L**3       RATES FOR THIS TIME STEP      L**3/T          PACKAGE NAME    
     ------------------                 ------------------------                     ----------------

           IN:                                      IN:
           ---                                      ---
              STO-SS =      204524.7158                STO-SS =         315.4411     STORAGE                          
                 DRN =           0.0000                   DRN =           0.0000     DRN_SYS1                         
                 RIV =       89975.4349                   RIV =        1053.4828     RIV_SYS1                         
                 RIV =           0.0000                   RIV =           0.0000     RIV_SYS2                         
                 RCH =      236247.8460                   RCH =         368.8529     RCH_MSW                          

            TOTAL IN =      530747.9968              TOTAL IN =        1737.7769

          OUT:                                     OUT:
          ----                                     ----
              STO-SS =       15082.7985                STO-SS =           0.1120     STORAGE                          
                 DRN =       11357.8201                   DRN =          29.2637     DRN_SYS1                         
                 RIV =      469707.2826                   RIV =        1617.0054     RIV_SYS1                         
                 RIV =       31075.3096                   RIV =          87.5946     RIV_SYS2                         
                 RCH =        3524.9192                   RCH =           3.8016     RCH_MSW                          

           TOTAL OUT =      530748.1301             TOTAL OUT =        1737.7772

            IN - OUT =          -0.1333              IN - OUT =      -3.6640E-04

 PERCENT DISCREPANCY =          -0.00     PERCENT DISCREPANCY =          -0.00




         TIME SUMMARY AT END OF TIME STEP    1 IN STRESS PERIOD  148
                    SECONDS     MINUTES      HOURS       DAYS        YEARS
                    -----------------------------------------------------------
   TIME STEP LENGTH  86400.      1440.0      24.000      1.0000     2.73785E-03
 STRESS PERIOD TIME  86400.      1440.0      24.000      1.0000     2.73785E-03
         TOTAL TIME 1.27872E+07 2.13120E+05  3552.0      148.00     0.40520    


end timestep


start timestep kper="149" kstp="1" mode="normal"

 #Stressperiod Save Options

 BEGIN READING OUTPUT CONTROL FOR STRESS PERIOD 149
      ALL TIME STEPS WILL BE SAVED
      ALL TIME STEPS WILL BE SAVED

 END READING OUTPUT CONTROL FOR STRESS PERIOD 149


 PROCESSING STORAGE PERIOD DATA
 END PROCESSING STORAGE PERIOD DATA


 STRESS PERIOD 149 IS TRANSIENT


 REUSING DRNS FROM LAST STRESS PERIOD

 REUSING RIVS FROM LAST STRESS PERIOD

 REUSING RIVS FROM LAST STRESS PERIOD

 REUSING RCHS FROM LAST STRESS PERIOD
 UBDSV06 SAVING              DRN IN MODEL GWF_1            PACKAGE GWF_1           CONNECTED TO MODEL GWF_1            PACKAGE DRN_SYS1         ON UNIT   1018 AT TIME STEP      1, STRESS PERIOD    149
 UBDSV06 SAVING              RIV IN MODEL GWF_1            PACKAGE GWF_1           CONNECTED TO MODEL GWF_1            PACKAGE RIV_SYS1         ON UNIT   1018 AT TIME STEP      1, STRESS PERIOD    149
 UBDSV06 SAVING              RIV IN MODEL GWF_1            PACKAGE GWF_1           CONNECTED TO MODEL GWF_1            PACKAGE RIV_SYS2         ON UNIT   1018 AT TIME STEP      1, STRESS PERIOD    149
 UBDSV06 SAVING              RCH IN MODEL GWF_1            PACKAGE GWF_1           CONNECTED TO MODEL GWF_1            PACKAGE RCH_MSW          ON UNIT   1018 AT TIME STEP      1, STRESS PERIOD    149

 HEAD WILL BE SAVED ON UNIT 1017 AT END OF TIME STEP    1, STRESS PERIOD  149


  VOLUME BUDGET FOR ENTIRE MODEL AT END OF TIME STEP    1, STRESS PERIOD 149
  ---------------------------------------------------------------------------------------------------

     CUMULATIVE VOLUME      L**3       RATES FOR THIS TIME STEP      L**3/T          PACKAGE NAME    
     ------------------                 ------------------------                     ----------------

           IN:                                      IN:
           ---                                      ---
              STO-SS =      204824.5842                STO-SS =         299.8683     STORAGE                          
                 DRN =           0.0000                   DRN =           0.0000     DRN_SYS1                         
                 RIV =       91032.5759                   RIV =        1057.1409     RIV_SYS1                         
                 RIV =           0.0000                   RIV =           0.0000     RIV_SYS2                         
                 RCH =      236616.7822                   RCH =         368.9362     RCH_MSW                          

            TOTAL IN =      532473.9423              TOTAL IN =        1725.9455

          OUT:                                     OUT:
          ----                                     ----
              STO-SS =       15082.8574                STO-SS =       5.8871E-02     STORAGE                          
                 DRN =       11386.6304                   DRN =          28.8102     DRN_SYS1                         
                 RIV =      471316.1167                   RIV =        1608.8341     RIV_SYS1                         
                 RIV =       31161.8034                   RIV =          86.4938     RIV_SYS2                         
                 RCH =        3526.6688                   RCH =           1.7496     RCH_MSW                          

           TOTAL OUT =      532474.0767             TOTAL OUT =        1725.9466

            IN - OUT =          -0.1345              IN - OUT =      -1.1845E-03

 PERCENT DISCREPANCY =          -0.00     PERCENT DISCREPANCY =          -0.00




         TIME SUMMARY AT END OF TIME STEP    1 IN STRESS PERIOD  149
                    SECONDS     MINUTES      HOURS       DAYS        YEARS
                    -----------------------------------------------------------
   TIME STEP LENGTH  86400.      1440.0      24.000      1.0000     2.73785E-03
 STRESS PERIOD TIME  86400.      1440.0      24.000      1.0000     2.73785E-03
         TOTAL TIME 1.28736E+07 2.14560E+05  3576.0      149.00     0.40794    


end timestep


start timestep kper="150" kstp="1" mode="normal"

 #Stressperiod Save Options

 BEGIN READING OUTPUT CONTROL FOR STRESS PERIOD 150
      ALL TIME STEPS WILL BE SAVED
      ALL TIME STEPS WILL BE SAVED

 END READING OUTPUT CONTROL FOR STRESS PERIOD 150


 PROCESSING STORAGE PERIOD DATA
 END PROCESSING STORAGE PERIOD DATA


 STRESS PERIOD 150 IS TRANSIENT


 REUSING DRNS FROM LAST STRESS PERIOD

 REUSING RIVS FROM LAST STRESS PERIOD

 REUSING RIVS FROM LAST STRESS PERIOD

 REUSING RCHS FROM LAST STRESS PERIOD
 UBDSV06 SAVING              DRN IN MODEL GWF_1            PACKAGE GWF_1           CONNECTED TO MODEL GWF_1            PACKAGE DRN_SYS1         ON UNIT   1018 AT TIME STEP      1, STRESS PERIOD    150
 UBDSV06 SAVING              RIV IN MODEL GWF_1            PACKAGE GWF_1           CONNECTED TO MODEL GWF_1            PACKAGE RIV_SYS1         ON UNIT   1018 AT TIME STEP      1, STRESS PERIOD    150
 UBDSV06 SAVING              RIV IN MODEL GWF_1            PACKAGE GWF_1           CONNECTED TO MODEL GWF_1            PACKAGE RIV_SYS2         ON UNIT   1018 AT TIME STEP      1, STRESS PERIOD    150
 UBDSV06 SAVING              RCH IN MODEL GWF_1            PACKAGE GWF_1           CONNECTED TO MODEL GWF_1            PACKAGE RCH_MSW          ON UNIT   1018 AT TIME STEP      1, STRESS PERIOD    150

 HEAD WILL BE SAVED ON UNIT 1017 AT END OF TIME STEP    1, STRESS PERIOD  150


  VOLUME BUDGET FOR ENTIRE MODEL AT END OF TIME STEP    1, STRESS PERIOD 150
  ---------------------------------------------------------------------------------------------------

     CUMULATIVE VOLUME      L**3       RATES FOR THIS TIME STEP      L**3/T          PACKAGE NAME    
     ------------------                 ------------------------                     ----------------

           IN:                                      IN:
           ---                                      ---
              STO-SS =      205122.7139                STO-SS =         298.1297     STORAGE                          
                 DRN =           0.0000                   DRN =           0.0000     DRN_SYS1                         
                 RIV =       92095.8961                   RIV =        1063.3202     RIV_SYS1                         
                 RIV =           0.0000                   RIV =           0.0000     RIV_SYS2                         
                 RCH =      236969.4852                   RCH =         352.7030     RCH_MSW                          

            TOTAL IN =      534188.0951              TOTAL IN =        1714.1529

          OUT:                                     OUT:
          ----                                     ----
              STO-SS =       15082.8574                STO-SS =           0.0000     STORAGE                          
                 DRN =       11415.0056                   DRN =          28.3752     DRN_SYS1                         
                 RIV =      472916.0303                   RIV =        1599.9136     RIV_SYS1                         
                 RIV =       31247.2431                   RIV =          85.4396     RIV_SYS2                         
                 RCH =        3527.0954                   RCH =           0.4266     RCH_MSW                          

           TOTAL OUT =      534188.2317             TOTAL OUT =        1714.1550

            IN - OUT =          -0.1366              IN - OUT =      -2.1432E-03

 PERCENT DISCREPANCY =          -0.00     PERCENT DISCREPANCY =          -0.00




         TIME SUMMARY AT END OF TIME STEP    1 IN STRESS PERIOD  150
                    SECONDS     MINUTES      HOURS       DAYS        YEARS
                    -----------------------------------------------------------
   TIME STEP LENGTH  86400.      1440.0      24.000      1.0000     2.73785E-03
 STRESS PERIOD TIME  86400.      1440.0      24.000      1.0000     2.73785E-03
         TOTAL TIME 1.29600E+07 2.16000E+05  3600.0      150.00     0.41068    


end timestep


start timestep kper="151" kstp="1" mode="normal"

 #Stressperiod Save Options

 BEGIN READING OUTPUT CONTROL FOR STRESS PERIOD 151
      ALL TIME STEPS WILL BE SAVED
      ALL TIME STEPS WILL BE SAVED

 END READING OUTPUT CONTROL FOR STRESS PERIOD 151


 PROCESSING STORAGE PERIOD DATA
 END PROCESSING STORAGE PERIOD DATA


 STRESS PERIOD 151 IS TRANSIENT


 REUSING DRNS FROM LAST STRESS PERIOD

 REUSING RIVS FROM LAST STRESS PERIOD

 REUSING RIVS FROM LAST STRESS PERIOD

 REUSING RCHS FROM LAST STRESS PERIOD
 UBDSV06 SAVING              DRN IN MODEL GWF_1            PACKAGE GWF_1           CONNECTED TO MODEL GWF_1            PACKAGE DRN_SYS1         ON UNIT   1018 AT TIME STEP      1, STRESS PERIOD    151
 UBDSV06 SAVING              RIV IN MODEL GWF_1            PACKAGE GWF_1           CONNECTED TO MODEL GWF_1            PACKAGE RIV_SYS1         ON UNIT   1018 AT TIME STEP      1, STRESS PERIOD    151
 UBDSV06 SAVING              RIV IN MODEL GWF_1            PACKAGE GWF_1           CONNECTED TO MODEL GWF_1            PACKAGE RIV_SYS2         ON UNIT   1018 AT TIME STEP      1, STRESS PERIOD    151
 UBDSV06 SAVING              RCH IN MODEL GWF_1            PACKAGE GWF_1           CONNECTED TO MODEL GWF_1            PACKAGE RCH_MSW          ON UNIT   1018 AT TIME STEP      1, STRESS PERIOD    151

 HEAD WILL BE SAVED ON UNIT 1017 AT END OF TIME STEP    1, STRESS PERIOD  151


  VOLUME BUDGET FOR ENTIRE MODEL AT END OF TIME STEP    1, STRESS PERIOD 151
  ---------------------------------------------------------------------------------------------------

     CUMULATIVE VOLUME      L**3       RATES FOR THIS TIME STEP      L**3/T          PACKAGE NAME    
     ------------------                 ------------------------                     ----------------

           IN:                                      IN:
           ---                                      ---
              STO-SS =      205462.9563                STO-SS =         340.2424     STORAGE                          
                 DRN =           0.0000                   DRN =           0.0000     DRN_SYS1                         
                 RIV =       93165.2565                   RIV =        1069.3604     RIV_SYS1                         
                 RIV =           0.0000                   RIV =           0.0000     RIV_SYS2                         
                 RCH =      237261.1593                   RCH =         291.6741     RCH_MSW                          

            TOTAL IN =      535889.3720              TOTAL IN =        1701.2769

          OUT:                                     OUT:
          ----                                     ----
              STO-SS =       15082.8574                STO-SS =           0.0000     STORAGE                          
                 DRN =       11442.8876                   DRN =          27.8821     DRN_SYS1                         
                 RIV =      474505.1499                   RIV =        1589.1196     RIV_SYS1                         
                 RIV =       31331.4941                   RIV =          84.2510     RIV_SYS2                         
                 RCH =        3527.1204                   RCH =       2.5015E-02     RCH_MSW                          

           TOTAL OUT =      535889.5094             TOTAL OUT =        1701.2777

            IN - OUT =          -0.1374              IN - OUT =      -7.7355E-04

 PERCENT DISCREPANCY =          -0.00     PERCENT DISCREPANCY =          -0.00




         TIME SUMMARY AT END OF TIME STEP    1 IN STRESS PERIOD  151
                    SECONDS     MINUTES      HOURS       DAYS        YEARS
                    -----------------------------------------------------------
   TIME STEP LENGTH  86400.      1440.0      24.000      1.0000     2.73785E-03
 STRESS PERIOD TIME  86400.      1440.0      24.000      1.0000     2.73785E-03
         TOTAL TIME 1.30464E+07 2.17440E+05  3624.0      151.00     0.41342    


end timestep


start timestep kper="152" kstp="1" mode="normal"

 #Stressperiod Save Options

 BEGIN READING OUTPUT CONTROL FOR STRESS PERIOD 152
      ALL TIME STEPS WILL BE SAVED
      ALL TIME STEPS WILL BE SAVED

 END READING OUTPUT CONTROL FOR STRESS PERIOD 152


 PROCESSING STORAGE PERIOD DATA
 END PROCESSING STORAGE PERIOD DATA


 STRESS PERIOD 152 IS TRANSIENT


 REUSING DRNS FROM LAST STRESS PERIOD

 REUSING RIVS FROM LAST STRESS PERIOD

 REUSING RIVS FROM LAST STRESS PERIOD

 REUSING RCHS FROM LAST STRESS PERIOD
 UBDSV06 SAVING              DRN IN MODEL GWF_1            PACKAGE GWF_1           CONNECTED TO MODEL GWF_1            PACKAGE DRN_SYS1         ON UNIT   1018 AT TIME STEP      1, STRESS PERIOD    152
 UBDSV06 SAVING              RIV IN MODEL GWF_1            PACKAGE GWF_1           CONNECTED TO MODEL GWF_1            PACKAGE RIV_SYS1         ON UNIT   1018 AT TIME STEP      1, STRESS PERIOD    152
 UBDSV06 SAVING              RIV IN MODEL GWF_1            PACKAGE GWF_1           CONNECTED TO MODEL GWF_1            PACKAGE RIV_SYS2         ON UNIT   1018 AT TIME STEP      1, STRESS PERIOD    152
 UBDSV06 SAVING              RCH IN MODEL GWF_1            PACKAGE GWF_1           CONNECTED TO MODEL GWF_1            PACKAGE RCH_MSW          ON UNIT   1018 AT TIME STEP      1, STRESS PERIOD    152

 HEAD WILL BE SAVED ON UNIT 1017 AT END OF TIME STEP    1, STRESS PERIOD  152


  VOLUME BUDGET FOR ENTIRE MODEL AT END OF TIME STEP    1, STRESS PERIOD 152
  ---------------------------------------------------------------------------------------------------

     CUMULATIVE VOLUME      L**3       RATES FOR THIS TIME STEP      L**3/T          PACKAGE NAME    
     ------------------                 ------------------------                     ----------------

           IN:                                      IN:
           ---                                      ---
              STO-SS =      205789.4497                STO-SS =         326.4935     STORAGE                          
                 DRN =           0.0000                   DRN =           0.0000     DRN_SYS1                         
                 RIV =       94240.1939                   RIV =        1074.9374     RIV_SYS1                         
                 RIV =           0.0000                   RIV =           0.0000     RIV_SYS2                         
                 RCH =      237549.2716                   RCH =         288.1123     RCH_MSW                          

            TOTAL IN =      537578.9152              TOTAL IN =        1689.5432

          OUT:                                     OUT:
          ----                                     ----
              STO-SS =       15082.8574                STO-SS =           0.0000     STORAGE                          
                 DRN =       11470.2920                   DRN =          27.4043     DRN_SYS1                         
                 RIV =      476084.1947                   RIV =        1579.0448     RIV_SYS1                         
                 RIV =       31414.5886                   RIV =          83.0945     RIV_SYS2                         
                 RCH =        3527.1204                   RCH =           0.0000     RCH_MSW                          

           TOTAL OUT =      537579.0531             TOTAL OUT =        1689.5436

            IN - OUT =          -0.1378              IN - OUT =      -4.7450E-04

 PERCENT DISCREPANCY =          -0.00     PERCENT DISCREPANCY =          -0.00




         TIME SUMMARY AT END OF TIME STEP    1 IN STRESS PERIOD  152
                    SECONDS     MINUTES      HOURS       DAYS        YEARS
                    -----------------------------------------------------------
   TIME STEP LENGTH  86400.      1440.0      24.000      1.0000     2.73785E-03
 STRESS PERIOD TIME  86400.      1440.0      24.000      1.0000     2.73785E-03
         TOTAL TIME 1.31328E+07 2.18880E+05  3648.0      152.00     0.41615    


end timestep


start timestep kper="153" kstp="1" mode="normal"

 #Stressperiod Save Options

 BEGIN READING OUTPUT CONTROL FOR STRESS PERIOD 153
      ALL TIME STEPS WILL BE SAVED
      ALL TIME STEPS WILL BE SAVED

 END READING OUTPUT CONTROL FOR STRESS PERIOD 153


 PROCESSING STORAGE PERIOD DATA
 END PROCESSING STORAGE PERIOD DATA


 STRESS PERIOD 153 IS TRANSIENT


 REUSING DRNS FROM LAST STRESS PERIOD

 REUSING RIVS FROM LAST STRESS PERIOD

 REUSING RIVS FROM LAST STRESS PERIOD

 REUSING RCHS FROM LAST STRESS PERIOD
 UBDSV06 SAVING              DRN IN MODEL GWF_1            PACKAGE GWF_1           CONNECTED TO MODEL GWF_1            PACKAGE DRN_SYS1         ON UNIT   1018 AT TIME STEP      1, STRESS PERIOD    153
 UBDSV06 SAVING              RIV IN MODEL GWF_1            PACKAGE GWF_1           CONNECTED TO MODEL GWF_1            PACKAGE RIV_SYS1         ON UNIT   1018 AT TIME STEP      1, STRESS PERIOD    153
 UBDSV06 SAVING              RIV IN MODEL GWF_1            PACKAGE GWF_1           CONNECTED TO MODEL GWF_1            PACKAGE RIV_SYS2         ON UNIT   1018 AT TIME STEP      1, STRESS PERIOD    153
 UBDSV06 SAVING              RCH IN MODEL GWF_1            PACKAGE GWF_1           CONNECTED TO MODEL GWF_1            PACKAGE RCH_MSW          ON UNIT   1018 AT TIME STEP      1, STRESS PERIOD    153

 HEAD WILL BE SAVED ON UNIT 1017 AT END OF TIME STEP    1, STRESS PERIOD  153


  VOLUME BUDGET FOR ENTIRE MODEL AT END OF TIME STEP    1, STRESS PERIOD 153
  ---------------------------------------------------------------------------------------------------

     CUMULATIVE VOLUME      L**3       RATES FOR THIS TIME STEP      L**3/T          PACKAGE NAME    
     ------------------                 ------------------------                     ----------------

           IN:                                      IN:
           ---                                      ---
              STO-SS =      206035.5556                STO-SS =         246.1058     STORAGE                          
                 DRN =           0.0000                   DRN =           0.0000     DRN_SYS1                         
                 RIV =       95315.9504                   RIV =        1075.7565     RIV_SYS1                         
                 RIV =           0.0000                   RIV =           0.0000     RIV_SYS2                         
                 RCH =      237910.7034                   RCH =         361.4318     RCH_MSW                          

            TOTAL IN =      539262.2094              TOTAL IN =        1683.2942

          OUT:                                     OUT:
          ----                                     ----
              STO-SS =       15083.2140                STO-SS =           0.3566     STORAGE                          
                 DRN =       11497.3078                   DRN =          27.0159     DRN_SYS1                         
                 RIV =      477657.9403                   RIV =        1573.7456     RIV_SYS1                         
                 RIV =       31496.7653                   RIV =          82.1768     RIV_SYS2                         
                 RCH =        3527.1204                   RCH =           0.0000     RCH_MSW                          

           TOTAL OUT =      539262.3479             TOTAL OUT =        1683.2948

            IN - OUT =          -0.1385              IN - OUT =      -6.5461E-04

 PERCENT DISCREPANCY =          -0.00     PERCENT DISCREPANCY =          -0.00




         TIME SUMMARY AT END OF TIME STEP    1 IN STRESS PERIOD  153
                    SECONDS     MINUTES      HOURS       DAYS        YEARS
                    -----------------------------------------------------------
   TIME STEP LENGTH  86400.      1440.0      24.000      1.0000     2.73785E-03
 STRESS PERIOD TIME  86400.      1440.0      24.000      1.0000     2.73785E-03
         TOTAL TIME 1.32192E+07 2.20320E+05  3672.0      153.00     0.41889    


end timestep


start timestep kper="154" kstp="1" mode="normal"

 #Stressperiod Save Options

 BEGIN READING OUTPUT CONTROL FOR STRESS PERIOD 154
      ALL TIME STEPS WILL BE SAVED
      ALL TIME STEPS WILL BE SAVED

 END READING OUTPUT CONTROL FOR STRESS PERIOD 154


 PROCESSING STORAGE PERIOD DATA
 END PROCESSING STORAGE PERIOD DATA


 STRESS PERIOD 154 IS TRANSIENT


 REUSING DRNS FROM LAST STRESS PERIOD

 REUSING RIVS FROM LAST STRESS PERIOD

 REUSING RIVS FROM LAST STRESS PERIOD

 REUSING RCHS FROM LAST STRESS PERIOD
 UBDSV06 SAVING              DRN IN MODEL GWF_1            PACKAGE GWF_1           CONNECTED TO MODEL GWF_1            PACKAGE DRN_SYS1         ON UNIT   1018 AT TIME STEP      1, STRESS PERIOD    154
 UBDSV06 SAVING              RIV IN MODEL GWF_1            PACKAGE GWF_1           CONNECTED TO MODEL GWF_1            PACKAGE RIV_SYS1         ON UNIT   1018 AT TIME STEP      1, STRESS PERIOD    154
 UBDSV06 SAVING              RIV IN MODEL GWF_1            PACKAGE GWF_1           CONNECTED TO MODEL GWF_1            PACKAGE RIV_SYS2         ON UNIT   1018 AT TIME STEP      1, STRESS PERIOD    154
 UBDSV06 SAVING              RCH IN MODEL GWF_1            PACKAGE GWF_1           CONNECTED TO MODEL GWF_1            PACKAGE RCH_MSW          ON UNIT   1018 AT TIME STEP      1, STRESS PERIOD    154

 HEAD WILL BE SAVED ON UNIT 1017 AT END OF TIME STEP    1, STRESS PERIOD  154


  VOLUME BUDGET FOR ENTIRE MODEL AT END OF TIME STEP    1, STRESS PERIOD 154
  ---------------------------------------------------------------------------------------------------

     CUMULATIVE VOLUME      L**3       RATES FOR THIS TIME STEP      L**3/T          PACKAGE NAME    
     ------------------                 ------------------------                     ----------------

           IN:                                      IN:
           ---                                      ---
              STO-SS =      206273.8615                STO-SS =         238.3059     STORAGE                          
                 DRN =           0.0000                   DRN =           0.0000     DRN_SYS1                         
                 RIV =       96393.5772                   RIV =        1077.6268     RIV_SYS1                         
                 RIV =           0.0000                   RIV =           0.0000     RIV_SYS2                         
                 RCH =      238270.7404                   RCH =         360.0370     RCH_MSW                          

            TOTAL IN =      540938.1791              TOTAL IN =        1675.9698

          OUT:                                     OUT:
          ----                                     ----
              STO-SS =       15083.2410                STO-SS =       2.7035E-02     STORAGE                          
                 DRN =       11523.9556                   DRN =          26.6478     DRN_SYS1                         
                 RIV =      479225.9188                   RIV =        1567.9785     RIV_SYS1                         
                 RIV =       31578.0827                   RIV =          81.3174     RIV_SYS2                         
                 RCH =        3527.1204                   RCH =           0.0000     RCH_MSW                          

           TOTAL OUT =      540938.3185             TOTAL OUT =        1675.9706

            IN - OUT =          -0.1394              IN - OUT =      -8.8554E-04

 PERCENT DISCREPANCY =          -0.00     PERCENT DISCREPANCY =          -0.00




         TIME SUMMARY AT END OF TIME STEP    1 IN STRESS PERIOD  154
                    SECONDS     MINUTES      HOURS       DAYS        YEARS
                    -----------------------------------------------------------
   TIME STEP LENGTH  86400.      1440.0      24.000      1.0000     2.73785E-03
 STRESS PERIOD TIME  86400.      1440.0      24.000      1.0000     2.73785E-03
         TOTAL TIME 1.33056E+07 2.21760E+05  3696.0      154.00     0.42163    


end timestep


start timestep kper="155" kstp="1" mode="normal"

 #Stressperiod Save Options

 BEGIN READING OUTPUT CONTROL FOR STRESS PERIOD 155
      ALL TIME STEPS WILL BE SAVED
      ALL TIME STEPS WILL BE SAVED

 END READING OUTPUT CONTROL FOR STRESS PERIOD 155


 PROCESSING STORAGE PERIOD DATA
 END PROCESSING STORAGE PERIOD DATA


 STRESS PERIOD 155 IS TRANSIENT


 REUSING DRNS FROM LAST STRESS PERIOD

 REUSING RIVS FROM LAST STRESS PERIOD

 REUSING RIVS FROM LAST STRESS PERIOD

 REUSING RCHS FROM LAST STRESS PERIOD
 UBDSV06 SAVING              DRN IN MODEL GWF_1            PACKAGE GWF_1           CONNECTED TO MODEL GWF_1            PACKAGE DRN_SYS1         ON UNIT   1018 AT TIME STEP      1, STRESS PERIOD    155
 UBDSV06 SAVING              RIV IN MODEL GWF_1            PACKAGE GWF_1           CONNECTED TO MODEL GWF_1            PACKAGE RIV_SYS1         ON UNIT   1018 AT TIME STEP      1, STRESS PERIOD    155
 UBDSV06 SAVING              RIV IN MODEL GWF_1            PACKAGE GWF_1           CONNECTED TO MODEL GWF_1            PACKAGE RIV_SYS2         ON UNIT   1018 AT TIME STEP      1, STRESS PERIOD    155
 UBDSV06 SAVING              RCH IN MODEL GWF_1            PACKAGE GWF_1           CONNECTED TO MODEL GWF_1            PACKAGE RCH_MSW          ON UNIT   1018 AT TIME STEP      1, STRESS PERIOD    155

 HEAD WILL BE SAVED ON UNIT 1017 AT END OF TIME STEP    1, STRESS PERIOD  155


  VOLUME BUDGET FOR ENTIRE MODEL AT END OF TIME STEP    1, STRESS PERIOD 155
  ---------------------------------------------------------------------------------------------------

     CUMULATIVE VOLUME      L**3       RATES FOR THIS TIME STEP      L**3/T          PACKAGE NAME    
     ------------------                 ------------------------                     ----------------

           IN:                                      IN:
           ---                                      ---
              STO-SS =      206443.0624                STO-SS =         169.2010     STORAGE                          
                 DRN =           0.0000                   DRN =           0.0000     DRN_SYS1                         
                 RIV =       97461.8903                   RIV =        1068.3132     RIV_SYS1                         
                 RIV =           0.0000                   RIV =           0.0000     RIV_SYS2                         
                 RCH =      238735.8525                   RCH =         465.1121     RCH_MSW                          

            TOTAL IN =      542640.8053              TOTAL IN =        1702.6262

          OUT:                                     OUT:
          ----                                     ----
              STO-SS =       15105.8748                STO-SS =          22.6338     STORAGE                          
                 DRN =       11550.3110                   DRN =          26.3554     DRN_SYS1                         
                 RIV =      480798.8769                   RIV =        1572.9581     RIV_SYS1                         
                 RIV =       31658.7657                   RIV =          80.6829     RIV_SYS2                         
                 RCH =        3527.1204                   RCH =           0.0000     RCH_MSW                          

           TOTAL OUT =      542640.9488             TOTAL OUT =        1702.6303

            IN - OUT =          -0.1435              IN - OUT =      -4.0977E-03

 PERCENT DISCREPANCY =          -0.00     PERCENT DISCREPANCY =          -0.00




         TIME SUMMARY AT END OF TIME STEP    1 IN STRESS PERIOD  155
                    SECONDS     MINUTES      HOURS       DAYS        YEARS
                    -----------------------------------------------------------
   TIME STEP LENGTH  86400.      1440.0      24.000      1.0000     2.73785E-03
 STRESS PERIOD TIME  86400.      1440.0      24.000      1.0000     2.73785E-03
         TOTAL TIME 1.33920E+07 2.23200E+05  3720.0      155.00     0.42437    


end timestep


start timestep kper="156" kstp="1" mode="normal"

 #Stressperiod Save Options

 BEGIN READING OUTPUT CONTROL FOR STRESS PERIOD 156
      ALL TIME STEPS WILL BE SAVED
      ALL TIME STEPS WILL BE SAVED

 END READING OUTPUT CONTROL FOR STRESS PERIOD 156


 PROCESSING STORAGE PERIOD DATA
 END PROCESSING STORAGE PERIOD DATA


 STRESS PERIOD 156 IS TRANSIENT


 REUSING DRNS FROM LAST STRESS PERIOD

 REUSING RIVS FROM LAST STRESS PERIOD

 REUSING RIVS FROM LAST STRESS PERIOD

 REUSING RCHS FROM LAST STRESS PERIOD
 UBDSV06 SAVING              DRN IN MODEL GWF_1            PACKAGE GWF_1           CONNECTED TO MODEL GWF_1            PACKAGE DRN_SYS1         ON UNIT   1018 AT TIME STEP      1, STRESS PERIOD    156
 UBDSV06 SAVING              RIV IN MODEL GWF_1            PACKAGE GWF_1           CONNECTED TO MODEL GWF_1            PACKAGE RIV_SYS1         ON UNIT   1018 AT TIME STEP      1, STRESS PERIOD    156
 UBDSV06 SAVING              RIV IN MODEL GWF_1            PACKAGE GWF_1           CONNECTED TO MODEL GWF_1            PACKAGE RIV_SYS2         ON UNIT   1018 AT TIME STEP      1, STRESS PERIOD    156
 UBDSV06 SAVING              RCH IN MODEL GWF_1            PACKAGE GWF_1           CONNECTED TO MODEL GWF_1            PACKAGE RCH_MSW          ON UNIT   1018 AT TIME STEP      1, STRESS PERIOD    156

 HEAD WILL BE SAVED ON UNIT 1017 AT END OF TIME STEP    1, STRESS PERIOD  156


  VOLUME BUDGET FOR ENTIRE MODEL AT END OF TIME STEP    1, STRESS PERIOD 156
  ---------------------------------------------------------------------------------------------------

     CUMULATIVE VOLUME      L**3       RATES FOR THIS TIME STEP      L**3/T          PACKAGE NAME    
     ------------------                 ------------------------                     ----------------

           IN:                                      IN:
           ---                                      ---
              STO-SS =      206615.4412                STO-SS =         172.3788     STORAGE                          
                 DRN =           0.0000                   DRN =           0.0000     DRN_SYS1                         
                 RIV =       98523.2504                   RIV =        1061.3601     RIV_SYS1                         
                 RIV =           0.0000                   RIV =           0.0000     RIV_SYS2                         
                 RCH =      239204.6477                   RCH =         468.7952     RCH_MSW                          

            TOTAL IN =      544343.3394              TOTAL IN =        1702.5341

          OUT:                                     OUT:
          ----                                     ----
              STO-SS =       15126.2181                STO-SS =          20.3432     STORAGE                          
                 DRN =       11576.3536                   DRN =          26.0426     DRN_SYS1                         
                 RIV =      482375.0246                   RIV =        1576.1478     RIV_SYS1                         
                 RIV =       31738.7692                   RIV =          80.0036     RIV_SYS2                         
                 RCH =        3527.1204                   RCH =           0.0000     RCH_MSW                          

           TOTAL OUT =      544343.4860             TOTAL OUT =        1702.5372

            IN - OUT =          -0.1466              IN - OUT =      -3.1165E-03

 PERCENT DISCREPANCY =          -0.00     PERCENT DISCREPANCY =          -0.00




         TIME SUMMARY AT END OF TIME STEP    1 IN STRESS PERIOD  156
                    SECONDS     MINUTES      HOURS       DAYS        YEARS
                    -----------------------------------------------------------
   TIME STEP LENGTH  86400.      1440.0      24.000      1.0000     2.73785E-03
 STRESS PERIOD TIME  86400.      1440.0      24.000      1.0000     2.73785E-03
         TOTAL TIME 1.34784E+07 2.24640E+05  3744.0      156.00     0.42710    


end timestep


start timestep kper="157" kstp="1" mode="normal"

 #Stressperiod Save Options

 BEGIN READING OUTPUT CONTROL FOR STRESS PERIOD 157
      ALL TIME STEPS WILL BE SAVED
      ALL TIME STEPS WILL BE SAVED

 END READING OUTPUT CONTROL FOR STRESS PERIOD 157


 PROCESSING STORAGE PERIOD DATA
 END PROCESSING STORAGE PERIOD DATA


 STRESS PERIOD 157 IS TRANSIENT


 REUSING DRNS FROM LAST STRESS PERIOD

 REUSING RIVS FROM LAST STRESS PERIOD

 REUSING RIVS FROM LAST STRESS PERIOD

 REUSING RCHS FROM LAST STRESS PERIOD
 UBDSV06 SAVING              DRN IN MODEL GWF_1            PACKAGE GWF_1           CONNECTED TO MODEL GWF_1            PACKAGE DRN_SYS1         ON UNIT   1018 AT TIME STEP      1, STRESS PERIOD    157
 UBDSV06 SAVING              RIV IN MODEL GWF_1            PACKAGE GWF_1           CONNECTED TO MODEL GWF_1            PACKAGE RIV_SYS1         ON UNIT   1018 AT TIME STEP      1, STRESS PERIOD    157
 UBDSV06 SAVING              RIV IN MODEL GWF_1            PACKAGE GWF_1           CONNECTED TO MODEL GWF_1            PACKAGE RIV_SYS2         ON UNIT   1018 AT TIME STEP      1, STRESS PERIOD    157
 UBDSV06 SAVING              RCH IN MODEL GWF_1            PACKAGE GWF_1           CONNECTED TO MODEL GWF_1            PACKAGE RCH_MSW          ON UNIT   1018 AT TIME STEP      1, STRESS PERIOD    157

 HEAD WILL BE SAVED ON UNIT 1017 AT END OF TIME STEP    1, STRESS PERIOD  157


  VOLUME BUDGET FOR ENTIRE MODEL AT END OF TIME STEP    1, STRESS PERIOD 157
  ---------------------------------------------------------------------------------------------------

     CUMULATIVE VOLUME      L**3       RATES FOR THIS TIME STEP      L**3/T          PACKAGE NAME    
     ------------------                 ------------------------                     ----------------

           IN:                                      IN:
           ---                                      ---
              STO-SS =      206748.2447                STO-SS =         132.8035     STORAGE                          
                 DRN =           0.0000                   DRN =           0.0000     DRN_SYS1                         
                 RIV =       99576.3981                   RIV =        1053.1476     RIV_SYS1                         
                 RIV =           0.0000                   RIV =           0.0000     RIV_SYS2                         
                 RCH =      239732.3008                   RCH =         527.6531     RCH_MSW                          

            TOTAL IN =      546056.9436              TOTAL IN =        1713.6042

          OUT:                                     OUT:
          ----                                     ----
              STO-SS =       15153.1924                STO-SS =          26.9743     STORAGE                          
                 DRN =       11602.1428                   DRN =          25.7891     DRN_SYS1                         
                 RIV =      483956.3707                   RIV =        1581.3460     RIV_SYS1                         
                 RIV =       31818.2669                   RIV =          79.4977     RIV_SYS2                         
                 RCH =        3527.1204                   RCH =           0.0000     RCH_MSW                          

           TOTAL OUT =      546057.0932             TOTAL OUT =        1713.6072

            IN - OUT =          -0.1496              IN - OUT =      -3.0015E-03

 PERCENT DISCREPANCY =          -0.00     PERCENT DISCREPANCY =          -0.00




         TIME SUMMARY AT END OF TIME STEP    1 IN STRESS PERIOD  157
                    SECONDS     MINUTES      HOURS       DAYS        YEARS
                    -----------------------------------------------------------
   TIME STEP LENGTH  86400.      1440.0      24.000      1.0000     2.73785E-03
 STRESS PERIOD TIME  86400.      1440.0      24.000      1.0000     2.73785E-03
         TOTAL TIME 1.35648E+07 2.26080E+05  3768.0      157.00     0.42984    


end timestep


start timestep kper="158" kstp="1" mode="normal"

 #Stressperiod Save Options

 BEGIN READING OUTPUT CONTROL FOR STRESS PERIOD 158
      ALL TIME STEPS WILL BE SAVED
      ALL TIME STEPS WILL BE SAVED

 END READING OUTPUT CONTROL FOR STRESS PERIOD 158


 PROCESSING STORAGE PERIOD DATA
 END PROCESSING STORAGE PERIOD DATA


 STRESS PERIOD 158 IS TRANSIENT


 REUSING DRNS FROM LAST STRESS PERIOD

 REUSING RIVS FROM LAST STRESS PERIOD

 REUSING RIVS FROM LAST STRESS PERIOD

 REUSING RCHS FROM LAST STRESS PERIOD
 UBDSV06 SAVING              DRN IN MODEL GWF_1            PACKAGE GWF_1           CONNECTED TO MODEL GWF_1            PACKAGE DRN_SYS1         ON UNIT   1018 AT TIME STEP      1, STRESS PERIOD    158
 UBDSV06 SAVING              RIV IN MODEL GWF_1            PACKAGE GWF_1           CONNECTED TO MODEL GWF_1            PACKAGE RIV_SYS1         ON UNIT   1018 AT TIME STEP      1, STRESS PERIOD    158
 UBDSV06 SAVING              RIV IN MODEL GWF_1            PACKAGE GWF_1           CONNECTED TO MODEL GWF_1            PACKAGE RIV_SYS2         ON UNIT   1018 AT TIME STEP      1, STRESS PERIOD    158
 UBDSV06 SAVING              RCH IN MODEL GWF_1            PACKAGE GWF_1           CONNECTED TO MODEL GWF_1            PACKAGE RCH_MSW          ON UNIT   1018 AT TIME STEP      1, STRESS PERIOD    158

 HEAD WILL BE SAVED ON UNIT 1017 AT END OF TIME STEP    1, STRESS PERIOD  158


  VOLUME BUDGET FOR ENTIRE MODEL AT END OF TIME STEP    1, STRESS PERIOD 158
  ---------------------------------------------------------------------------------------------------

     CUMULATIVE VOLUME      L**3       RATES FOR THIS TIME STEP      L**3/T          PACKAGE NAME    
     ------------------                 ------------------------                     ----------------

           IN:                                      IN:
           ---                                      ---
              STO-SS =      206851.5618                STO-SS =         103.3171     STORAGE                          
                 DRN =           0.0000                   DRN =           0.0000     DRN_SYS1                         
                 RIV =      100623.1093                   RIV =        1046.7113     RIV_SYS1                         
                 RIV =           0.0000                   RIV =           0.0000     RIV_SYS2                         
                 RCH =      240303.9332                   RCH =         571.6324     RCH_MSW                          

            TOTAL IN =      547778.6044              TOTAL IN =        1721.6608

          OUT:                                     OUT:
          ----                                     ----
              STO-SS =       15182.4502                STO-SS =          29.2578     STORAGE                          
                 DRN =       11627.7327                   DRN =          25.5900     DRN_SYS1                         
                 RIV =      485544.0511                   RIV =        1587.6804     RIV_SYS1                         
                 RIV =       31897.4042                   RIV =          79.1372     RIV_SYS2                         
                 RCH =        3527.1204                   RCH =           0.0000     RCH_MSW                          

           TOTAL OUT =      547778.7586             TOTAL OUT =        1721.6654

            IN - OUT =          -0.1542              IN - OUT =      -4.6077E-03

 PERCENT DISCREPANCY =          -0.00     PERCENT DISCREPANCY =          -0.00




         TIME SUMMARY AT END OF TIME STEP    1 IN STRESS PERIOD  158
                    SECONDS     MINUTES      HOURS       DAYS        YEARS
                    -----------------------------------------------------------
   TIME STEP LENGTH  86400.      1440.0      24.000      1.0000     2.73785E-03
 STRESS PERIOD TIME  86400.      1440.0      24.000      1.0000     2.73785E-03
         TOTAL TIME 1.36512E+07 2.27520E+05  3792.0      158.00     0.43258    


end timestep


start timestep kper="159" kstp="1" mode="normal"

 #Stressperiod Save Options

 BEGIN READING OUTPUT CONTROL FOR STRESS PERIOD 159
      ALL TIME STEPS WILL BE SAVED
      ALL TIME STEPS WILL BE SAVED

 END READING OUTPUT CONTROL FOR STRESS PERIOD 159


 PROCESSING STORAGE PERIOD DATA
 END PROCESSING STORAGE PERIOD DATA


 STRESS PERIOD 159 IS TRANSIENT


 REUSING DRNS FROM LAST STRESS PERIOD

 REUSING RIVS FROM LAST STRESS PERIOD

 REUSING RIVS FROM LAST STRESS PERIOD

 REUSING RCHS FROM LAST STRESS PERIOD
 UBDSV06 SAVING              DRN IN MODEL GWF_1            PACKAGE GWF_1           CONNECTED TO MODEL GWF_1            PACKAGE DRN_SYS1         ON UNIT   1018 AT TIME STEP      1, STRESS PERIOD    159
 UBDSV06 SAVING              RIV IN MODEL GWF_1            PACKAGE GWF_1           CONNECTED TO MODEL GWF_1            PACKAGE RIV_SYS1         ON UNIT   1018 AT TIME STEP      1, STRESS PERIOD    159
 UBDSV06 SAVING              RIV IN MODEL GWF_1            PACKAGE GWF_1           CONNECTED TO MODEL GWF_1            PACKAGE RIV_SYS2         ON UNIT   1018 AT TIME STEP      1, STRESS PERIOD    159
 UBDSV06 SAVING              RCH IN MODEL GWF_1            PACKAGE GWF_1           CONNECTED TO MODEL GWF_1            PACKAGE RCH_MSW          ON UNIT   1018 AT TIME STEP      1, STRESS PERIOD    159

 HEAD WILL BE SAVED ON UNIT 1017 AT END OF TIME STEP    1, STRESS PERIOD  159


  VOLUME BUDGET FOR ENTIRE MODEL AT END OF TIME STEP    1, STRESS PERIOD 159
  ---------------------------------------------------------------------------------------------------

     CUMULATIVE VOLUME      L**3       RATES FOR THIS TIME STEP      L**3/T          PACKAGE NAME    
     ------------------                 ------------------------                     ----------------

           IN:                                      IN:
           ---                                      ---
              STO-SS =      206899.2017                STO-SS =          47.6399     STORAGE                          
                 DRN =           0.0000                   DRN =           0.0000     DRN_SYS1                         
                 RIV =      101659.2835                   RIV =        1036.1741     RIV_SYS1                         
                 RIV =           0.0000                   RIV =           0.0000     RIV_SYS2                         
                 RCH =      240987.1683                   RCH =         683.2351     RCH_MSW                          

            TOTAL IN =      549545.6535              TOTAL IN =        1767.0491

          OUT:                                     OUT:
          ----                                     ----
              STO-SS =       15244.8419                STO-SS =          62.3917     STORAGE                          
                 DRN =       11653.2405                   DRN =          25.5078     DRN_SYS1                         
                 RIV =      487144.1013                   RIV =        1600.0502     RIV_SYS1                         
                 RIV =       31976.5028                   RIV =          79.0987     RIV_SYS2                         
                 RCH =        3527.1204                   RCH =           0.0000     RCH_MSW                          

           TOTAL OUT =      549545.8070             TOTAL OUT =        1767.0484

            IN - OUT =          -0.1535              IN - OUT =       7.0125E-04

 PERCENT DISCREPANCY =          -0.00     PERCENT DISCREPANCY =           0.00




         TIME SUMMARY AT END OF TIME STEP    1 IN STRESS PERIOD  159
                    SECONDS     MINUTES      HOURS       DAYS        YEARS
                    -----------------------------------------------------------
   TIME STEP LENGTH  86400.      1440.0      24.000      1.0000     2.73785E-03
 STRESS PERIOD TIME  86400.      1440.0      24.000      1.0000     2.73785E-03
         TOTAL TIME 1.37376E+07 2.28960E+05  3816.0      159.00     0.43532    


end timestep


start timestep kper="160" kstp="1" mode="normal"

 #Stressperiod Save Options

 BEGIN READING OUTPUT CONTROL FOR STRESS PERIOD 160
      ALL TIME STEPS WILL BE SAVED
      ALL TIME STEPS WILL BE SAVED

 END READING OUTPUT CONTROL FOR STRESS PERIOD 160


 PROCESSING STORAGE PERIOD DATA
 END PROCESSING STORAGE PERIOD DATA


 STRESS PERIOD 160 IS TRANSIENT


 REUSING DRNS FROM LAST STRESS PERIOD

 REUSING RIVS FROM LAST STRESS PERIOD

 REUSING RIVS FROM LAST STRESS PERIOD

 REUSING RCHS FROM LAST STRESS PERIOD
 UBDSV06 SAVING              DRN IN MODEL GWF_1            PACKAGE GWF_1           CONNECTED TO MODEL GWF_1            PACKAGE DRN_SYS1         ON UNIT   1018 AT TIME STEP      1, STRESS PERIOD    160
 UBDSV06 SAVING              RIV IN MODEL GWF_1            PACKAGE GWF_1           CONNECTED TO MODEL GWF_1            PACKAGE RIV_SYS1         ON UNIT   1018 AT TIME STEP      1, STRESS PERIOD    160
 UBDSV06 SAVING              RIV IN MODEL GWF_1            PACKAGE GWF_1           CONNECTED TO MODEL GWF_1            PACKAGE RIV_SYS2         ON UNIT   1018 AT TIME STEP      1, STRESS PERIOD    160
 UBDSV06 SAVING              RCH IN MODEL GWF_1            PACKAGE GWF_1           CONNECTED TO MODEL GWF_1            PACKAGE RCH_MSW          ON UNIT   1018 AT TIME STEP      1, STRESS PERIOD    160

 HEAD WILL BE SAVED ON UNIT 1017 AT END OF TIME STEP    1, STRESS PERIOD  160


  VOLUME BUDGET FOR ENTIRE MODEL AT END OF TIME STEP    1, STRESS PERIOD 160
  ---------------------------------------------------------------------------------------------------

     CUMULATIVE VOLUME      L**3       RATES FOR THIS TIME STEP      L**3/T          PACKAGE NAME    
     ------------------                 ------------------------                     ----------------

           IN:                                      IN:
           ---                                      ---
              STO-SS =      206922.1689                STO-SS =          22.9672     STORAGE                          
                 DRN =           0.0000                   DRN =           0.0000     DRN_SYS1                         
                 RIV =      102681.8388                   RIV =        1022.5553     RIV_SYS1                         
                 RIV =           0.0000                   RIV =           0.0000     RIV_SYS2                         
                 RCH =      241783.0855                   RCH =         795.9172     RCH_MSW                          

            TOTAL IN =      551387.0931              TOTAL IN =        1841.4396

          OUT:                                     OUT:
          ----                                     ----
              STO-SS =       15361.6729                STO-SS =         116.8309     STORAGE                          
                 DRN =       11678.7871                   DRN =          25.5465     DRN_SYS1                         
                 RIV =      488763.8759                   RIV =        1619.7746     RIV_SYS1                         
                 RIV =       32055.7866                   RIV =          79.2838     RIV_SYS2                         
                 RCH =        3527.1204                   RCH =           0.0000     RCH_MSW                          

           TOTAL OUT =      551387.2428             TOTAL OUT =        1841.4358

            IN - OUT =          -0.1497              IN - OUT =       3.7930E-03

 PERCENT DISCREPANCY =          -0.00     PERCENT DISCREPANCY =           0.00




         TIME SUMMARY AT END OF TIME STEP    1 IN STRESS PERIOD  160
                    SECONDS     MINUTES      HOURS       DAYS        YEARS
                    -----------------------------------------------------------
   TIME STEP LENGTH  86400.      1440.0      24.000      1.0000     2.73785E-03
 STRESS PERIOD TIME  86400.      1440.0      24.000      1.0000     2.73785E-03
         TOTAL TIME 1.38240E+07 2.30400E+05  3840.0      160.00     0.43806    


end timestep


start timestep kper="161" kstp="1" mode="normal"

 #Stressperiod Save Options

 BEGIN READING OUTPUT CONTROL FOR STRESS PERIOD 161
      ALL TIME STEPS WILL BE SAVED
      ALL TIME STEPS WILL BE SAVED

 END READING OUTPUT CONTROL FOR STRESS PERIOD 161


 PROCESSING STORAGE PERIOD DATA
 END PROCESSING STORAGE PERIOD DATA


 STRESS PERIOD 161 IS TRANSIENT


 REUSING DRNS FROM LAST STRESS PERIOD

 REUSING RIVS FROM LAST STRESS PERIOD

 REUSING RIVS FROM LAST STRESS PERIOD

 REUSING RCHS FROM LAST STRESS PERIOD
 UBDSV06 SAVING              DRN IN MODEL GWF_1            PACKAGE GWF_1           CONNECTED TO MODEL GWF_1            PACKAGE DRN_SYS1         ON UNIT   1018 AT TIME STEP      1, STRESS PERIOD    161
 UBDSV06 SAVING              RIV IN MODEL GWF_1            PACKAGE GWF_1           CONNECTED TO MODEL GWF_1            PACKAGE RIV_SYS1         ON UNIT   1018 AT TIME STEP      1, STRESS PERIOD    161
 UBDSV06 SAVING              RIV IN MODEL GWF_1            PACKAGE GWF_1           CONNECTED TO MODEL GWF_1            PACKAGE RIV_SYS2         ON UNIT   1018 AT TIME STEP      1, STRESS PERIOD    161
 UBDSV06 SAVING              RCH IN MODEL GWF_1            PACKAGE GWF_1           CONNECTED TO MODEL GWF_1            PACKAGE RCH_MSW          ON UNIT   1018 AT TIME STEP      1, STRESS PERIOD    161

 HEAD WILL BE SAVED ON UNIT 1017 AT END OF TIME STEP    1, STRESS PERIOD  161


  VOLUME BUDGET FOR ENTIRE MODEL AT END OF TIME STEP    1, STRESS PERIOD 161
  ---------------------------------------------------------------------------------------------------

     CUMULATIVE VOLUME      L**3       RATES FOR THIS TIME STEP      L**3/T          PACKAGE NAME    
     ------------------                 ------------------------                     ----------------

           IN:                                      IN:
           ---                                      ---
              STO-SS =      206947.4673                STO-SS =          25.2985     STORAGE                          
                 DRN =           0.0000                   DRN =           0.0000     DRN_SYS1                         
                 RIV =      103692.2451                   RIV =        1010.4063     RIV_SYS1                         
                 RIV =           0.0000                   RIV =           0.0000     RIV_SYS2                         
                 RCH =      242588.6790                   RCH =         805.5936     RCH_MSW                          

            TOTAL IN =      553228.3914              TOTAL IN =        1841.2983

          OUT:                                     OUT:
          ----                                     ----
              STO-SS =       15463.1833                STO-SS =         101.5104     STORAGE                          
                 DRN =       11704.3771                   DRN =          25.5901     DRN_SYS1                         
                 RIV =      490398.5088                   RIV =        1634.6329     RIV_SYS1                         
                 RIV =       32135.3471                   RIV =          79.5605     RIV_SYS2                         
                 RCH =        3527.1204                   RCH =           0.0000     RCH_MSW                          

           TOTAL OUT =      553228.5367             TOTAL OUT =        1841.2939

            IN - OUT =          -0.1453              IN - OUT =       4.4354E-03

 PERCENT DISCREPANCY =          -0.00     PERCENT DISCREPANCY =           0.00




         TIME SUMMARY AT END OF TIME STEP    1 IN STRESS PERIOD  161
                    SECONDS     MINUTES      HOURS       DAYS        YEARS
                    -----------------------------------------------------------
   TIME STEP LENGTH  86400.      1440.0      24.000      1.0000     2.73785E-03
 STRESS PERIOD TIME  86400.      1440.0      24.000      1.0000     2.73785E-03
         TOTAL TIME 1.39104E+07 2.31840E+05  3864.0      161.00     0.44079    


end timestep


start timestep kper="162" kstp="1" mode="normal"

 #Stressperiod Save Options

 BEGIN READING OUTPUT CONTROL FOR STRESS PERIOD 162
      ALL TIME STEPS WILL BE SAVED
      ALL TIME STEPS WILL BE SAVED

 END READING OUTPUT CONTROL FOR STRESS PERIOD 162


 PROCESSING STORAGE PERIOD DATA
 END PROCESSING STORAGE PERIOD DATA


 STRESS PERIOD 162 IS TRANSIENT


 REUSING DRNS FROM LAST STRESS PERIOD

 REUSING RIVS FROM LAST STRESS PERIOD

 REUSING RIVS FROM LAST STRESS PERIOD

 REUSING RCHS FROM LAST STRESS PERIOD
 UBDSV06 SAVING              DRN IN MODEL GWF_1            PACKAGE GWF_1           CONNECTED TO MODEL GWF_1            PACKAGE DRN_SYS1         ON UNIT   1018 AT TIME STEP      1, STRESS PERIOD    162
 UBDSV06 SAVING              RIV IN MODEL GWF_1            PACKAGE GWF_1           CONNECTED TO MODEL GWF_1            PACKAGE RIV_SYS1         ON UNIT   1018 AT TIME STEP      1, STRESS PERIOD    162
 UBDSV06 SAVING              RIV IN MODEL GWF_1            PACKAGE GWF_1           CONNECTED TO MODEL GWF_1            PACKAGE RIV_SYS2         ON UNIT   1018 AT TIME STEP      1, STRESS PERIOD    162
 UBDSV06 SAVING              RCH IN MODEL GWF_1            PACKAGE GWF_1           CONNECTED TO MODEL GWF_1            PACKAGE RCH_MSW          ON UNIT   1018 AT TIME STEP      1, STRESS PERIOD    162

 HEAD WILL BE SAVED ON UNIT 1017 AT END OF TIME STEP    1, STRESS PERIOD  162


  VOLUME BUDGET FOR ENTIRE MODEL AT END OF TIME STEP    1, STRESS PERIOD 162
  ---------------------------------------------------------------------------------------------------

     CUMULATIVE VOLUME      L**3       RATES FOR THIS TIME STEP      L**3/T          PACKAGE NAME    
     ------------------                 ------------------------                     ----------------

           IN:                                      IN:
           ---                                      ---
              STO-SS =      206960.1046                STO-SS =          12.6373     STORAGE                          
                 DRN =           0.0000                   DRN =           0.0000     DRN_SYS1                         
                 RIV =      104694.2450                   RIV =        1001.9999     RIV_SYS1                         
                 RIV =           0.0000                   RIV =           0.0000     RIV_SYS2                         
                 RCH =      243418.6462                   RCH =         829.9672     RCH_MSW                          

            TOTAL IN =      555072.9958              TOTAL IN =        1844.6043

          OUT:                                     OUT:
          ----                                     ----
              STO-SS =       15557.7202                STO-SS =          94.5369     STORAGE                          
                 DRN =       11730.0219                   DRN =          25.6448     DRN_SYS1                         
                 RIV =      492043.0241                   RIV =        1644.5154     RIV_SYS1                         
                 RIV =       32215.2524                   RIV =          79.9053     RIV_SYS2                         
                 RCH =        3527.1204                   RCH =           0.0000     RCH_MSW                          

           TOTAL OUT =      555073.1391             TOTAL OUT =        1844.6024

            IN - OUT =          -0.1433              IN - OUT =       1.9493E-03

 PERCENT DISCREPANCY =          -0.00     PERCENT DISCREPANCY =           0.00




         TIME SUMMARY AT END OF TIME STEP    1 IN STRESS PERIOD  162
                    SECONDS     MINUTES      HOURS       DAYS        YEARS
                    -----------------------------------------------------------
   TIME STEP LENGTH  86400.      1440.0      24.000      1.0000     2.73785E-03
 STRESS PERIOD TIME  86400.      1440.0      24.000      1.0000     2.73785E-03
         TOTAL TIME 1.39968E+07 2.33280E+05  3888.0      162.00     0.44353    


end timestep


start timestep kper="163" kstp="1" mode="normal"

 #Stressperiod Save Options

 BEGIN READING OUTPUT CONTROL FOR STRESS PERIOD 163
      ALL TIME STEPS WILL BE SAVED
      ALL TIME STEPS WILL BE SAVED

 END READING OUTPUT CONTROL FOR STRESS PERIOD 163


 PROCESSING STORAGE PERIOD DATA
 END PROCESSING STORAGE PERIOD DATA


 STRESS PERIOD 163 IS TRANSIENT


 REUSING DRNS FROM LAST STRESS PERIOD

 REUSING RIVS FROM LAST STRESS PERIOD

 REUSING RIVS FROM LAST STRESS PERIOD

 REUSING RCHS FROM LAST STRESS PERIOD
 UBDSV06 SAVING              DRN IN MODEL GWF_1            PACKAGE GWF_1           CONNECTED TO MODEL GWF_1            PACKAGE DRN_SYS1         ON UNIT   1018 AT TIME STEP      1, STRESS PERIOD    163
 UBDSV06 SAVING              RIV IN MODEL GWF_1            PACKAGE GWF_1           CONNECTED TO MODEL GWF_1            PACKAGE RIV_SYS1         ON UNIT   1018 AT TIME STEP      1, STRESS PERIOD    163
 UBDSV06 SAVING              RIV IN MODEL GWF_1            PACKAGE GWF_1           CONNECTED TO MODEL GWF_1            PACKAGE RIV_SYS2         ON UNIT   1018 AT TIME STEP      1, STRESS PERIOD    163
 UBDSV06 SAVING              RCH IN MODEL GWF_1            PACKAGE GWF_1           CONNECTED TO MODEL GWF_1            PACKAGE RCH_MSW          ON UNIT   1018 AT TIME STEP      1, STRESS PERIOD    163

 HEAD WILL BE SAVED ON UNIT 1017 AT END OF TIME STEP    1, STRESS PERIOD  163


  VOLUME BUDGET FOR ENTIRE MODEL AT END OF TIME STEP    1, STRESS PERIOD 163
  ---------------------------------------------------------------------------------------------------

     CUMULATIVE VOLUME      L**3       RATES FOR THIS TIME STEP      L**3/T          PACKAGE NAME    
     ------------------                 ------------------------                     ----------------

           IN:                                      IN:
           ---                                      ---
              STO-SS =      206968.1022                STO-SS =           7.9976     STORAGE                          
                 DRN =           0.0000                   DRN =           0.0000     DRN_SYS1                         
                 RIV =      105692.2065                   RIV =         997.9615     RIV_SYS1                         
                 RIV =           0.0000                   RIV =           0.0000     RIV_SYS2                         
                 RCH =      244241.3720                   RCH =         822.7258     RCH_MSW                          

            TOTAL IN =      556901.6807              TOTAL IN =        1828.6849

          OUT:                                     OUT:
          ----                                     ----
              STO-SS =       15631.5298                STO-SS =          73.8096     STORAGE                          
                 DRN =       11755.7208                   DRN =          25.6988     DRN_SYS1                         
                 RIV =      493691.9400                   RIV =        1648.9159     RIV_SYS1                         
                 RIV =       32295.4875                   RIV =          80.2351     RIV_SYS2                         
                 RCH =        3527.1204                   RCH =           0.0000     RCH_MSW                          

           TOTAL OUT =      556901.7985             TOTAL OUT =        1828.6594

            IN - OUT =          -0.1178              IN - OUT =       2.5490E-02

 PERCENT DISCREPANCY =          -0.00     PERCENT DISCREPANCY =           0.00




         TIME SUMMARY AT END OF TIME STEP    1 IN STRESS PERIOD  163
                    SECONDS     MINUTES      HOURS       DAYS        YEARS
                    -----------------------------------------------------------
   TIME STEP LENGTH  86400.      1440.0      24.000      1.0000     2.73785E-03
 STRESS PERIOD TIME  86400.      1440.0      24.000      1.0000     2.73785E-03
         TOTAL TIME 1.40832E+07 2.34720E+05  3912.0      163.00     0.44627    


end timestep


start timestep kper="164" kstp="1" mode="normal"

 #Stressperiod Save Options

 BEGIN READING OUTPUT CONTROL FOR STRESS PERIOD 164
      ALL TIME STEPS WILL BE SAVED
      ALL TIME STEPS WILL BE SAVED

 END READING OUTPUT CONTROL FOR STRESS PERIOD 164


 PROCESSING STORAGE PERIOD DATA
 END PROCESSING STORAGE PERIOD DATA


 STRESS PERIOD 164 IS TRANSIENT


 REUSING DRNS FROM LAST STRESS PERIOD

 REUSING RIVS FROM LAST STRESS PERIOD

 REUSING RIVS FROM LAST STRESS PERIOD

 REUSING RCHS FROM LAST STRESS PERIOD
 UBDSV06 SAVING              DRN IN MODEL GWF_1            PACKAGE GWF_1           CONNECTED TO MODEL GWF_1            PACKAGE DRN_SYS1         ON UNIT   1018 AT TIME STEP      1, STRESS PERIOD    164
 UBDSV06 SAVING              RIV IN MODEL GWF_1            PACKAGE GWF_1           CONNECTED TO MODEL GWF_1            PACKAGE RIV_SYS1         ON UNIT   1018 AT TIME STEP      1, STRESS PERIOD    164
 UBDSV06 SAVING              RIV IN MODEL GWF_1            PACKAGE GWF_1           CONNECTED TO MODEL GWF_1            PACKAGE RIV_SYS2         ON UNIT   1018 AT TIME STEP      1, STRESS PERIOD    164
 UBDSV06 SAVING              RCH IN MODEL GWF_1            PACKAGE GWF_1           CONNECTED TO MODEL GWF_1            PACKAGE RCH_MSW          ON UNIT   1018 AT TIME STEP      1, STRESS PERIOD    164

 HEAD WILL BE SAVED ON UNIT 1017 AT END OF TIME STEP    1, STRESS PERIOD  164


  VOLUME BUDGET FOR ENTIRE MODEL AT END OF TIME STEP    1, STRESS PERIOD 164
  ---------------------------------------------------------------------------------------------------

     CUMULATIVE VOLUME      L**3       RATES FOR THIS TIME STEP      L**3/T          PACKAGE NAME    
     ------------------                 ------------------------                     ----------------

           IN:                                      IN:
           ---                                      ---
              STO-SS =      206975.4209                STO-SS =           7.3187     STORAGE                          
                 DRN =           0.0000                   DRN =           0.0000     DRN_SYS1                         
                 RIV =      106689.1151                   RIV =         996.9085     RIV_SYS1                         
                 RIV =           0.0000                   RIV =           0.0000     RIV_SYS2                         
                 RCH =      245045.4205                   RCH =         804.0485     RCH_MSW                          

            TOTAL IN =      558709.9565              TOTAL IN =        1808.2758

          OUT:                                     OUT:
          ----                                     ----
              STO-SS =       15683.9782                STO-SS =          52.4485     STORAGE                          
                 DRN =       11781.4647                   DRN =          25.7439     DRN_SYS1                         
                 RIV =      495341.4889                   RIV =        1649.5488     RIV_SYS1                         
                 RIV =       32375.9999                   RIV =          80.5123     RIV_SYS2                         
                 RCH =        3527.1204                   RCH =           0.0000     RCH_MSW                          

           TOTAL OUT =      558710.0521             TOTAL OUT =        1808.2535

            IN - OUT =      -9.5583E-02              IN - OUT =       2.2254E-02

 PERCENT DISCREPANCY =          -0.00     PERCENT DISCREPANCY =           0.00




         TIME SUMMARY AT END OF TIME STEP    1 IN STRESS PERIOD  164
                    SECONDS     MINUTES      HOURS       DAYS        YEARS
                    -----------------------------------------------------------
   TIME STEP LENGTH  86400.      1440.0      24.000      1.0000     2.73785E-03
 STRESS PERIOD TIME  86400.      1440.0      24.000      1.0000     2.73785E-03
         TOTAL TIME 1.41696E+07 2.36160E+05  3936.0      164.00     0.44901    


end timestep


start timestep kper="165" kstp="1" mode="normal"

 #Stressperiod Save Options

 BEGIN READING OUTPUT CONTROL FOR STRESS PERIOD 165
      ALL TIME STEPS WILL BE SAVED
      ALL TIME STEPS WILL BE SAVED

 END READING OUTPUT CONTROL FOR STRESS PERIOD 165


 PROCESSING STORAGE PERIOD DATA
 END PROCESSING STORAGE PERIOD DATA


 STRESS PERIOD 165 IS TRANSIENT


 REUSING DRNS FROM LAST STRESS PERIOD

 REUSING RIVS FROM LAST STRESS PERIOD

 REUSING RIVS FROM LAST STRESS PERIOD

 REUSING RCHS FROM LAST STRESS PERIOD
 UBDSV06 SAVING              DRN IN MODEL GWF_1            PACKAGE GWF_1           CONNECTED TO MODEL GWF_1            PACKAGE DRN_SYS1         ON UNIT   1018 AT TIME STEP      1, STRESS PERIOD    165
 UBDSV06 SAVING              RIV IN MODEL GWF_1            PACKAGE GWF_1           CONNECTED TO MODEL GWF_1            PACKAGE RIV_SYS1         ON UNIT   1018 AT TIME STEP      1, STRESS PERIOD    165
 UBDSV06 SAVING              RIV IN MODEL GWF_1            PACKAGE GWF_1           CONNECTED TO MODEL GWF_1            PACKAGE RIV_SYS2         ON UNIT   1018 AT TIME STEP      1, STRESS PERIOD    165
 UBDSV06 SAVING              RCH IN MODEL GWF_1            PACKAGE GWF_1           CONNECTED TO MODEL GWF_1            PACKAGE RCH_MSW          ON UNIT   1018 AT TIME STEP      1, STRESS PERIOD    165

 HEAD WILL BE SAVED ON UNIT 1017 AT END OF TIME STEP    1, STRESS PERIOD  165


  VOLUME BUDGET FOR ENTIRE MODEL AT END OF TIME STEP    1, STRESS PERIOD 165
  ---------------------------------------------------------------------------------------------------

     CUMULATIVE VOLUME      L**3       RATES FOR THIS TIME STEP      L**3/T          PACKAGE NAME    
     ------------------                 ------------------------                     ----------------

           IN:                                      IN:
           ---                                      ---
              STO-SS =      206985.4496                STO-SS =          10.0287     STORAGE                          
                 DRN =           0.0000                   DRN =           0.0000     DRN_SYS1                         
                 RIV =      107687.1468                   RIV =         998.0317     RIV_SYS1                         
                 RIV =           0.0000                   RIV =           0.0000     RIV_SYS2                         
                 RCH =      245823.3754                   RCH =         777.9548     RCH_MSW                          

            TOTAL IN =      560495.9718              TOTAL IN =        1786.0153

          OUT:                                     OUT:
          ----                                     ----
              STO-SS =       15716.1411                STO-SS =          32.1629     STORAGE                          
                 DRN =       11807.2373                   DRN =          25.7726     DRN_SYS1                         
                 RIV =      496988.8357                   RIV =        1647.3468     RIV_SYS1                         
                 RIV =       32456.7121                   RIV =          80.7122     RIV_SYS2                         
                 RCH =        3527.1204                   RCH =           0.0000     RCH_MSW                          

           TOTAL OUT =      560496.0466             TOTAL OUT =        1785.9945

            IN - OUT =      -7.4828E-02              IN - OUT =       2.0755E-02

 PERCENT DISCREPANCY =          -0.00     PERCENT DISCREPANCY =           0.00




         TIME SUMMARY AT END OF TIME STEP    1 IN STRESS PERIOD  165
                    SECONDS     MINUTES      HOURS       DAYS        YEARS
                    -----------------------------------------------------------
   TIME STEP LENGTH  86400.      1440.0      24.000      1.0000     2.73785E-03
 STRESS PERIOD TIME  86400.      1440.0      24.000      1.0000     2.73785E-03
         TOTAL TIME 1.42560E+07 2.37600E+05  3960.0      165.00     0.45175    


end timestep


start timestep kper="166" kstp="1" mode="normal"

 #Stressperiod Save Options

 BEGIN READING OUTPUT CONTROL FOR STRESS PERIOD 166
      ALL TIME STEPS WILL BE SAVED
      ALL TIME STEPS WILL BE SAVED

 END READING OUTPUT CONTROL FOR STRESS PERIOD 166


 PROCESSING STORAGE PERIOD DATA
 END PROCESSING STORAGE PERIOD DATA


 STRESS PERIOD 166 IS TRANSIENT


 REUSING DRNS FROM LAST STRESS PERIOD

 REUSING RIVS FROM LAST STRESS PERIOD

 REUSING RIVS FROM LAST STRESS PERIOD

 REUSING RCHS FROM LAST STRESS PERIOD
 UBDSV06 SAVING              DRN IN MODEL GWF_1            PACKAGE GWF_1           CONNECTED TO MODEL GWF_1            PACKAGE DRN_SYS1         ON UNIT   1018 AT TIME STEP      1, STRESS PERIOD    166
 UBDSV06 SAVING              RIV IN MODEL GWF_1            PACKAGE GWF_1           CONNECTED TO MODEL GWF_1            PACKAGE RIV_SYS1         ON UNIT   1018 AT TIME STEP      1, STRESS PERIOD    166
 UBDSV06 SAVING              RIV IN MODEL GWF_1            PACKAGE GWF_1           CONNECTED TO MODEL GWF_1            PACKAGE RIV_SYS2         ON UNIT   1018 AT TIME STEP      1, STRESS PERIOD    166
 UBDSV06 SAVING              RCH IN MODEL GWF_1            PACKAGE GWF_1           CONNECTED TO MODEL GWF_1            PACKAGE RCH_MSW          ON UNIT   1018 AT TIME STEP      1, STRESS PERIOD    166

 HEAD WILL BE SAVED ON UNIT 1017 AT END OF TIME STEP    1, STRESS PERIOD  166


  VOLUME BUDGET FOR ENTIRE MODEL AT END OF TIME STEP    1, STRESS PERIOD 166
  ---------------------------------------------------------------------------------------------------

     CUMULATIVE VOLUME      L**3       RATES FOR THIS TIME STEP      L**3/T          PACKAGE NAME    
     ------------------                 ------------------------                     ----------------

           IN:                                      IN:
           ---                                      ---
              STO-SS =      207001.4842                STO-SS =          16.0346     STORAGE                          
                 DRN =           0.0000                   DRN =           0.0000     DRN_SYS1                         
                 RIV =      108687.8316                   RIV =        1000.6848     RIV_SYS1                         
                 RIV =           0.0000                   RIV =           0.0000     RIV_SYS2                         
                 RCH =      246572.8345                   RCH =         749.4592     RCH_MSW                          

            TOTAL IN =      562262.1504              TOTAL IN =        1766.1786

          OUT:                                     OUT:
          ----                                     ----
              STO-SS =       15732.5325                STO-SS =          16.3914     STORAGE                          
                 DRN =       11833.0198                   DRN =          25.7825     DRN_SYS1                         
                 RIV =      498632.0042                   RIV =        1643.1685     RIV_SYS1                         
                 RIV =       32537.5419                   RIV =          80.8298     RIV_SYS2                         
                 RCH =        3527.1204                   RCH =           0.0000     RCH_MSW                          

           TOTAL OUT =      562262.2188             TOTAL OUT =        1766.1722

            IN - OUT =      -6.8441E-02              IN - OUT =       6.3870E-03

 PERCENT DISCREPANCY =          -0.00     PERCENT DISCREPANCY =           0.00




         TIME SUMMARY AT END OF TIME STEP    1 IN STRESS PERIOD  166
                    SECONDS     MINUTES      HOURS       DAYS        YEARS
                    -----------------------------------------------------------
   TIME STEP LENGTH  86400.      1440.0      24.000      1.0000     2.73785E-03
 STRESS PERIOD TIME  86400.      1440.0      24.000      1.0000     2.73785E-03
         TOTAL TIME 1.43424E+07 2.39040E+05  3984.0      166.00     0.45448    


end timestep


start timestep kper="167" kstp="1" mode="normal"

 #Stressperiod Save Options

 BEGIN READING OUTPUT CONTROL FOR STRESS PERIOD 167
      ALL TIME STEPS WILL BE SAVED
      ALL TIME STEPS WILL BE SAVED

 END READING OUTPUT CONTROL FOR STRESS PERIOD 167


 PROCESSING STORAGE PERIOD DATA
 END PROCESSING STORAGE PERIOD DATA


 STRESS PERIOD 167 IS TRANSIENT


 REUSING DRNS FROM LAST STRESS PERIOD

 REUSING RIVS FROM LAST STRESS PERIOD

 REUSING RIVS FROM LAST STRESS PERIOD

 REUSING RCHS FROM LAST STRESS PERIOD
 UBDSV06 SAVING              DRN IN MODEL GWF_1            PACKAGE GWF_1           CONNECTED TO MODEL GWF_1            PACKAGE DRN_SYS1         ON UNIT   1018 AT TIME STEP      1, STRESS PERIOD    167
 UBDSV06 SAVING              RIV IN MODEL GWF_1            PACKAGE GWF_1           CONNECTED TO MODEL GWF_1            PACKAGE RIV_SYS1         ON UNIT   1018 AT TIME STEP      1, STRESS PERIOD    167
 UBDSV06 SAVING              RIV IN MODEL GWF_1            PACKAGE GWF_1           CONNECTED TO MODEL GWF_1            PACKAGE RIV_SYS2         ON UNIT   1018 AT TIME STEP      1, STRESS PERIOD    167
 UBDSV06 SAVING              RCH IN MODEL GWF_1            PACKAGE GWF_1           CONNECTED TO MODEL GWF_1            PACKAGE RCH_MSW          ON UNIT   1018 AT TIME STEP      1, STRESS PERIOD    167

 HEAD WILL BE SAVED ON UNIT 1017 AT END OF TIME STEP    1, STRESS PERIOD  167


  VOLUME BUDGET FOR ENTIRE MODEL AT END OF TIME STEP    1, STRESS PERIOD 167
  ---------------------------------------------------------------------------------------------------

     CUMULATIVE VOLUME      L**3       RATES FOR THIS TIME STEP      L**3/T          PACKAGE NAME    
     ------------------                 ------------------------                     ----------------

           IN:                                      IN:
           ---                                      ---
              STO-SS =      207024.2670                STO-SS =          22.7828     STORAGE                          
                 DRN =           0.0000                   DRN =           0.0000     DRN_SYS1                         
                 RIV =      109691.5930                   RIV =        1003.7615     RIV_SYS1                         
                 RIV =           0.0000                   RIV =           0.0000     RIV_SYS2                         
                 RCH =      247299.1043                   RCH =         726.2697     RCH_MSW                          

            TOTAL IN =      564014.9644              TOTAL IN =        1752.8140

          OUT:                                     OUT:
          ----                                     ----
              STO-SS =       15740.3638                STO-SS =           7.8312     STORAGE                          
                 DRN =       11858.7953                   DRN =          25.7755     DRN_SYS1                         
                 RIV =      500270.3425                   RIV =        1638.3383     RIV_SYS1                         
                 RIV =       32618.4220                   RIV =          80.8801     RIV_SYS2                         
                 RCH =        3527.1204                   RCH =           0.0000     RCH_MSW                          

           TOTAL OUT =      564015.0439             TOTAL OUT =        1752.8251

            IN - OUT =      -7.9573E-02              IN - OUT =      -1.1131E-02

 PERCENT DISCREPANCY =          -0.00     PERCENT DISCREPANCY =          -0.00




         TIME SUMMARY AT END OF TIME STEP    1 IN STRESS PERIOD  167
                    SECONDS     MINUTES      HOURS       DAYS        YEARS
                    -----------------------------------------------------------
   TIME STEP LENGTH  86400.      1440.0      24.000      1.0000     2.73785E-03
 STRESS PERIOD TIME  86400.      1440.0      24.000      1.0000     2.73785E-03
         TOTAL TIME 1.44288E+07 2.40480E+05  4008.0      167.00     0.45722    


end timestep


start timestep kper="168" kstp="1" mode="normal"

 #Stressperiod Save Options

 BEGIN READING OUTPUT CONTROL FOR STRESS PERIOD 168
      ALL TIME STEPS WILL BE SAVED
      ALL TIME STEPS WILL BE SAVED

 END READING OUTPUT CONTROL FOR STRESS PERIOD 168


 PROCESSING STORAGE PERIOD DATA
 END PROCESSING STORAGE PERIOD DATA


 STRESS PERIOD 168 IS TRANSIENT


 REUSING DRNS FROM LAST STRESS PERIOD

 REUSING RIVS FROM LAST STRESS PERIOD

 REUSING RIVS FROM LAST STRESS PERIOD

 REUSING RCHS FROM LAST STRESS PERIOD
 UBDSV06 SAVING              DRN IN MODEL GWF_1            PACKAGE GWF_1           CONNECTED TO MODEL GWF_1            PACKAGE DRN_SYS1         ON UNIT   1018 AT TIME STEP      1, STRESS PERIOD    168
 UBDSV06 SAVING              RIV IN MODEL GWF_1            PACKAGE GWF_1           CONNECTED TO MODEL GWF_1            PACKAGE RIV_SYS1         ON UNIT   1018 AT TIME STEP      1, STRESS PERIOD    168
 UBDSV06 SAVING              RIV IN MODEL GWF_1            PACKAGE GWF_1           CONNECTED TO MODEL GWF_1            PACKAGE RIV_SYS2         ON UNIT   1018 AT TIME STEP      1, STRESS PERIOD    168
 UBDSV06 SAVING              RCH IN MODEL GWF_1            PACKAGE GWF_1           CONNECTED TO MODEL GWF_1            PACKAGE RCH_MSW          ON UNIT   1018 AT TIME STEP      1, STRESS PERIOD    168

 HEAD WILL BE SAVED ON UNIT 1017 AT END OF TIME STEP    1, STRESS PERIOD  168


  VOLUME BUDGET FOR ENTIRE MODEL AT END OF TIME STEP    1, STRESS PERIOD 168
  ---------------------------------------------------------------------------------------------------

     CUMULATIVE VOLUME      L**3       RATES FOR THIS TIME STEP      L**3/T          PACKAGE NAME    
     ------------------                 ------------------------                     ----------------

           IN:                                      IN:
           ---                                      ---
              STO-SS =      207056.3065                STO-SS =          32.0395     STORAGE                          
                 DRN =           0.0000                   DRN =           0.0000     DRN_SYS1                         
                 RIV =      110699.1569                   RIV =        1007.5638     RIV_SYS1                         
                 RIV =           0.0000                   RIV =           0.0000     RIV_SYS2                         
                 RCH =      248001.6109                   RCH =         702.5067     RCH_MSW                          

            TOTAL IN =      565757.0743              TOTAL IN =        1742.1100

          OUT:                                     OUT:
          ----                                     ----
              STO-SS =       15743.1537                STO-SS =           2.7899     STORAGE                          
                 DRN =       11884.5471                   DRN =          25.7517     DRN_SYS1                         
                 RIV =      501903.0552                   RIV =        1632.7127     RIV_SYS1                         
                 RIV =       32699.2900                   RIV =          80.8680     RIV_SYS2                         
                 RCH =        3527.1204                   RCH =           0.0000     RCH_MSW                          

           TOTAL OUT =      565757.1663             TOTAL OUT =        1742.1223

            IN - OUT =      -9.1947E-02              IN - OUT =      -1.2374E-02

 PERCENT DISCREPANCY =          -0.00     PERCENT DISCREPANCY =          -0.00




         TIME SUMMARY AT END OF TIME STEP    1 IN STRESS PERIOD  168
                    SECONDS     MINUTES      HOURS       DAYS        YEARS
                    -----------------------------------------------------------
   TIME STEP LENGTH  86400.      1440.0      24.000      1.0000     2.73785E-03
 STRESS PERIOD TIME  86400.      1440.0      24.000      1.0000     2.73785E-03
         TOTAL TIME 1.45152E+07 2.41920E+05  4032.0      168.00     0.45996    


end timestep


start timestep kper="169" kstp="1" mode="normal"

 #Stressperiod Save Options

 BEGIN READING OUTPUT CONTROL FOR STRESS PERIOD 169
      ALL TIME STEPS WILL BE SAVED
      ALL TIME STEPS WILL BE SAVED

 END READING OUTPUT CONTROL FOR STRESS PERIOD 169


 PROCESSING STORAGE PERIOD DATA
 END PROCESSING STORAGE PERIOD DATA


 STRESS PERIOD 169 IS TRANSIENT


 REUSING DRNS FROM LAST STRESS PERIOD

 REUSING RIVS FROM LAST STRESS PERIOD

 REUSING RIVS FROM LAST STRESS PERIOD

 REUSING RCHS FROM LAST STRESS PERIOD
 UBDSV06 SAVING              DRN IN MODEL GWF_1            PACKAGE GWF_1           CONNECTED TO MODEL GWF_1            PACKAGE DRN_SYS1         ON UNIT   1018 AT TIME STEP      1, STRESS PERIOD    169
 UBDSV06 SAVING              RIV IN MODEL GWF_1            PACKAGE GWF_1           CONNECTED TO MODEL GWF_1            PACKAGE RIV_SYS1         ON UNIT   1018 AT TIME STEP      1, STRESS PERIOD    169
 UBDSV06 SAVING              RIV IN MODEL GWF_1            PACKAGE GWF_1           CONNECTED TO MODEL GWF_1            PACKAGE RIV_SYS2         ON UNIT   1018 AT TIME STEP      1, STRESS PERIOD    169
 UBDSV06 SAVING              RCH IN MODEL GWF_1            PACKAGE GWF_1           CONNECTED TO MODEL GWF_1            PACKAGE RCH_MSW          ON UNIT   1018 AT TIME STEP      1, STRESS PERIOD    169

 HEAD WILL BE SAVED ON UNIT 1017 AT END OF TIME STEP    1, STRESS PERIOD  169


  VOLUME BUDGET FOR ENTIRE MODEL AT END OF TIME STEP    1, STRESS PERIOD 169
  ---------------------------------------------------------------------------------------------------

     CUMULATIVE VOLUME      L**3       RATES FOR THIS TIME STEP      L**3/T          PACKAGE NAME    
     ------------------                 ------------------------                     ----------------

           IN:                                      IN:
           ---                                      ---
              STO-SS =      207098.6224                STO-SS =          42.3159     STORAGE                          
                 DRN =           0.0000                   DRN =           0.0000     DRN_SYS1                         
                 RIV =      111710.7281                   RIV =        1011.5712     RIV_SYS1                         
                 RIV =           0.0000                   RIV =           0.0000     RIV_SYS2                         
                 RCH =      248681.2203                   RCH =         679.6093     RCH_MSW                          

            TOTAL IN =      567490.5708              TOTAL IN =        1733.4964

          OUT:                                     OUT:
          ----                                     ----
              STO-SS =       15743.3802                STO-SS =           0.2265     STORAGE                          
                 DRN =       11910.2577                   DRN =          25.7107     DRN_SYS1                         
                 RIV =      503529.8263                   RIV =        1626.7712     RIV_SYS1                         
                 RIV =       32780.0861                   RIV =          80.7961     RIV_SYS2                         
                 RCH =        3527.1204                   RCH =           0.0000     RCH_MSW                          

           TOTAL OUT =      567490.6708             TOTAL OUT =        1733.5045

            IN - OUT =          -0.1000              IN - OUT =      -8.0598E-03

 PERCENT DISCREPANCY =          -0.00     PERCENT DISCREPANCY =          -0.00




         TIME SUMMARY AT END OF TIME STEP    1 IN STRESS PERIOD  169
                    SECONDS     MINUTES      HOURS       DAYS        YEARS
                    -----------------------------------------------------------
   TIME STEP LENGTH  86400.      1440.0      24.000      1.0000     2.73785E-03
 STRESS PERIOD TIME  86400.      1440.0      24.000      1.0000     2.73785E-03
         TOTAL TIME 1.46016E+07 2.43360E+05  4056.0      169.00     0.46270    


end timestep


start timestep kper="170" kstp="1" mode="normal"

 #Stressperiod Save Options

 BEGIN READING OUTPUT CONTROL FOR STRESS PERIOD 170
      ALL TIME STEPS WILL BE SAVED
      ALL TIME STEPS WILL BE SAVED

 END READING OUTPUT CONTROL FOR STRESS PERIOD 170


 PROCESSING STORAGE PERIOD DATA
 END PROCESSING STORAGE PERIOD DATA


 STRESS PERIOD 170 IS TRANSIENT


 REUSING DRNS FROM LAST STRESS PERIOD

 REUSING RIVS FROM LAST STRESS PERIOD

 REUSING RIVS FROM LAST STRESS PERIOD

 REUSING RCHS FROM LAST STRESS PERIOD
 UBDSV06 SAVING              DRN IN MODEL GWF_1            PACKAGE GWF_1           CONNECTED TO MODEL GWF_1            PACKAGE DRN_SYS1         ON UNIT   1018 AT TIME STEP      1, STRESS PERIOD    170
 UBDSV06 SAVING              RIV IN MODEL GWF_1            PACKAGE GWF_1           CONNECTED TO MODEL GWF_1            PACKAGE RIV_SYS1         ON UNIT   1018 AT TIME STEP      1, STRESS PERIOD    170
 UBDSV06 SAVING              RIV IN MODEL GWF_1            PACKAGE GWF_1           CONNECTED TO MODEL GWF_1            PACKAGE RIV_SYS2         ON UNIT   1018 AT TIME STEP      1, STRESS PERIOD    170
 UBDSV06 SAVING              RCH IN MODEL GWF_1            PACKAGE GWF_1           CONNECTED TO MODEL GWF_1            PACKAGE RCH_MSW          ON UNIT   1018 AT TIME STEP      1, STRESS PERIOD    170

 HEAD WILL BE SAVED ON UNIT 1017 AT END OF TIME STEP    1, STRESS PERIOD  170


  VOLUME BUDGET FOR ENTIRE MODEL AT END OF TIME STEP    1, STRESS PERIOD 170
  ---------------------------------------------------------------------------------------------------

     CUMULATIVE VOLUME      L**3       RATES FOR THIS TIME STEP      L**3/T          PACKAGE NAME    
     ------------------                 ------------------------                     ----------------

           IN:                                      IN:
           ---                                      ---
              STO-SS =      207152.5764                STO-SS =          53.9540     STORAGE                          
                 DRN =           0.0000                   DRN =           0.0000     DRN_SYS1                         
                 RIV =      112726.5348                   RIV =        1015.8068     RIV_SYS1                         
                 RIV =           0.0000                   RIV =           0.0000     RIV_SYS2                         
                 RCH =      249338.2865                   RCH =         657.0662     RCH_MSW                          

            TOTAL IN =      569217.3977              TOTAL IN =        1726.8269

          OUT:                                     OUT:
          ----                                     ----
              STO-SS =       15743.3802                STO-SS =           0.0000     STORAGE                          
                 DRN =       11935.9108                   DRN =          25.6530     DRN_SYS1                         
                 RIV =      505150.3371                   RIV =        1620.5108     RIV_SYS1                         
                 RIV =       32860.7551                   RIV =          80.6690     RIV_SYS2                         
                 RCH =        3527.1204                   RCH =           0.0000     RCH_MSW                          

           TOTAL OUT =      569217.5036             TOTAL OUT =        1726.8329

            IN - OUT =          -0.1059              IN - OUT =      -5.9101E-03

 PERCENT DISCREPANCY =          -0.00     PERCENT DISCREPANCY =          -0.00




         TIME SUMMARY AT END OF TIME STEP    1 IN STRESS PERIOD  170
                    SECONDS     MINUTES      HOURS       DAYS        YEARS
                    -----------------------------------------------------------
   TIME STEP LENGTH  86400.      1440.0      24.000      1.0000     2.73785E-03
 STRESS PERIOD TIME  86400.      1440.0      24.000      1.0000     2.73785E-03
         TOTAL TIME 1.46880E+07 2.44800E+05  4080.0      170.00     0.46543    


end timestep


start timestep kper="171" kstp="1" mode="normal"

 #Stressperiod Save Options

 BEGIN READING OUTPUT CONTROL FOR STRESS PERIOD 171
      ALL TIME STEPS WILL BE SAVED
      ALL TIME STEPS WILL BE SAVED

 END READING OUTPUT CONTROL FOR STRESS PERIOD 171


 PROCESSING STORAGE PERIOD DATA
 END PROCESSING STORAGE PERIOD DATA


 STRESS PERIOD 171 IS TRANSIENT


 REUSING DRNS FROM LAST STRESS PERIOD

 REUSING RIVS FROM LAST STRESS PERIOD

 REUSING RIVS FROM LAST STRESS PERIOD

 REUSING RCHS FROM LAST STRESS PERIOD
 UBDSV06 SAVING              DRN IN MODEL GWF_1            PACKAGE GWF_1           CONNECTED TO MODEL GWF_1            PACKAGE DRN_SYS1         ON UNIT   1018 AT TIME STEP      1, STRESS PERIOD    171
 UBDSV06 SAVING              RIV IN MODEL GWF_1            PACKAGE GWF_1           CONNECTED TO MODEL GWF_1            PACKAGE RIV_SYS1         ON UNIT   1018 AT TIME STEP      1, STRESS PERIOD    171
 UBDSV06 SAVING              RIV IN MODEL GWF_1            PACKAGE GWF_1           CONNECTED TO MODEL GWF_1            PACKAGE RIV_SYS2         ON UNIT   1018 AT TIME STEP      1, STRESS PERIOD    171
 UBDSV06 SAVING              RCH IN MODEL GWF_1            PACKAGE GWF_1           CONNECTED TO MODEL GWF_1            PACKAGE RCH_MSW          ON UNIT   1018 AT TIME STEP      1, STRESS PERIOD    171

 HEAD WILL BE SAVED ON UNIT 1017 AT END OF TIME STEP    1, STRESS PERIOD  171


  VOLUME BUDGET FOR ENTIRE MODEL AT END OF TIME STEP    1, STRESS PERIOD 171
  ---------------------------------------------------------------------------------------------------

     CUMULATIVE VOLUME      L**3       RATES FOR THIS TIME STEP      L**3/T          PACKAGE NAME    
     ------------------                 ------------------------                     ----------------

           IN:                                      IN:
           ---                                      ---
              STO-SS =      207216.8612                STO-SS =          64.2848     STORAGE                          
                 DRN =           0.0000                   DRN =           0.0000     DRN_SYS1                         
                 RIV =      113746.7435                   RIV =        1020.2087     RIV_SYS1                         
                 RIV =           0.0000                   RIV =           0.0000     RIV_SYS2                         
                 RCH =      249973.9159                   RCH =         635.6294     RCH_MSW                          

            TOTAL IN =      570937.5206              TOTAL IN =        1720.1229

          OUT:                                     OUT:
          ----                                     ----
              STO-SS =       15743.3802                STO-SS =           0.0000     STORAGE                          
                 DRN =       11961.4909                   DRN =          25.5802     DRN_SYS1                         
                 RIV =      506764.3907                   RIV =        1614.0536     RIV_SYS1                         
                 RIV =       32941.2483                   RIV =          80.4932     RIV_SYS2                         
                 RCH =        3527.1204                   RCH =           0.0000     RCH_MSW                          

           TOTAL OUT =      570937.6306             TOTAL OUT =        1720.1269

            IN - OUT =          -0.1100              IN - OUT =      -4.0512E-03

 PERCENT DISCREPANCY =          -0.00     PERCENT DISCREPANCY =          -0.00




         TIME SUMMARY AT END OF TIME STEP    1 IN STRESS PERIOD  171
                    SECONDS     MINUTES      HOURS       DAYS        YEARS
                    -----------------------------------------------------------
   TIME STEP LENGTH  86400.      1440.0      24.000      1.0000     2.73785E-03
 STRESS PERIOD TIME  86400.      1440.0      24.000      1.0000     2.73785E-03
         TOTAL TIME 1.47744E+07 2.46240E+05  4104.0      171.00     0.46817    


end timestep


start timestep kper="172" kstp="1" mode="normal"

 #Stressperiod Save Options

 BEGIN READING OUTPUT CONTROL FOR STRESS PERIOD 172
      ALL TIME STEPS WILL BE SAVED
      ALL TIME STEPS WILL BE SAVED

 END READING OUTPUT CONTROL FOR STRESS PERIOD 172


 PROCESSING STORAGE PERIOD DATA
 END PROCESSING STORAGE PERIOD DATA


 STRESS PERIOD 172 IS TRANSIENT


 REUSING DRNS FROM LAST STRESS PERIOD

 REUSING RIVS FROM LAST STRESS PERIOD

 REUSING RIVS FROM LAST STRESS PERIOD

 REUSING RCHS FROM LAST STRESS PERIOD
 UBDSV06 SAVING              DRN IN MODEL GWF_1            PACKAGE GWF_1           CONNECTED TO MODEL GWF_1            PACKAGE DRN_SYS1         ON UNIT   1018 AT TIME STEP      1, STRESS PERIOD    172
 UBDSV06 SAVING              RIV IN MODEL GWF_1            PACKAGE GWF_1           CONNECTED TO MODEL GWF_1            PACKAGE RIV_SYS1         ON UNIT   1018 AT TIME STEP      1, STRESS PERIOD    172
 UBDSV06 SAVING              RIV IN MODEL GWF_1            PACKAGE GWF_1           CONNECTED TO MODEL GWF_1            PACKAGE RIV_SYS2         ON UNIT   1018 AT TIME STEP      1, STRESS PERIOD    172
 UBDSV06 SAVING              RCH IN MODEL GWF_1            PACKAGE GWF_1           CONNECTED TO MODEL GWF_1            PACKAGE RCH_MSW          ON UNIT   1018 AT TIME STEP      1, STRESS PERIOD    172

 HEAD WILL BE SAVED ON UNIT 1017 AT END OF TIME STEP    1, STRESS PERIOD  172


  VOLUME BUDGET FOR ENTIRE MODEL AT END OF TIME STEP    1, STRESS PERIOD 172
  ---------------------------------------------------------------------------------------------------

     CUMULATIVE VOLUME      L**3       RATES FOR THIS TIME STEP      L**3/T          PACKAGE NAME    
     ------------------                 ------------------------                     ----------------

           IN:                                      IN:
           ---                                      ---
              STO-SS =      207290.6817                STO-SS =          73.8205     STORAGE                          
                 DRN =           0.0000                   DRN =           0.0000     DRN_SYS1                         
                 RIV =      114771.4395                   RIV =        1024.6960     RIV_SYS1                         
                 RIV =           0.0000                   RIV =           0.0000     RIV_SYS2                         
                 RCH =      250588.5928                   RCH =         614.6770     RCH_MSW                          

            TOTAL IN =      572650.7140              TOTAL IN =        1713.1934

          OUT:                                     OUT:
          ----                                     ----
              STO-SS =       15743.3802                STO-SS =           0.0000     STORAGE                          
                 DRN =       11986.9839                   DRN =          25.4930     DRN_SYS1                         
                 RIV =      508371.8207                   RIV =        1607.4300     RIV_SYS1                         
                 RIV =       33021.5215                   RIV =          80.2732     RIV_SYS2                         
                 RCH =        3527.1204                   RCH =           0.0000     RCH_MSW                          

           TOTAL OUT =      572650.8267             TOTAL OUT =        1713.1962

            IN - OUT =          -0.1127              IN - OUT =      -2.7589E-03

 PERCENT DISCREPANCY =          -0.00     PERCENT DISCREPANCY =          -0.00




         TIME SUMMARY AT END OF TIME STEP    1 IN STRESS PERIOD  172
                    SECONDS     MINUTES      HOURS       DAYS        YEARS
                    -----------------------------------------------------------
   TIME STEP LENGTH  86400.      1440.0      24.000      1.0000     2.73785E-03
 STRESS PERIOD TIME  86400.      1440.0      24.000      1.0000     2.73785E-03
         TOTAL TIME 1.48608E+07 2.47680E+05  4128.0      172.00     0.47091    


end timestep


start timestep kper="173" kstp="1" mode="normal"

 #Stressperiod Save Options

 BEGIN READING OUTPUT CONTROL FOR STRESS PERIOD 173
      ALL TIME STEPS WILL BE SAVED
      ALL TIME STEPS WILL BE SAVED

 END READING OUTPUT CONTROL FOR STRESS PERIOD 173


 PROCESSING STORAGE PERIOD DATA
 END PROCESSING STORAGE PERIOD DATA


 STRESS PERIOD 173 IS TRANSIENT


 REUSING DRNS FROM LAST STRESS PERIOD

 REUSING RIVS FROM LAST STRESS PERIOD

 REUSING RIVS FROM LAST STRESS PERIOD

 REUSING RCHS FROM LAST STRESS PERIOD
 UBDSV06 SAVING              DRN IN MODEL GWF_1            PACKAGE GWF_1           CONNECTED TO MODEL GWF_1            PACKAGE DRN_SYS1         ON UNIT   1018 AT TIME STEP      1, STRESS PERIOD    173
 UBDSV06 SAVING              RIV IN MODEL GWF_1            PACKAGE GWF_1           CONNECTED TO MODEL GWF_1            PACKAGE RIV_SYS1         ON UNIT   1018 AT TIME STEP      1, STRESS PERIOD    173
 UBDSV06 SAVING              RIV IN MODEL GWF_1            PACKAGE GWF_1           CONNECTED TO MODEL GWF_1            PACKAGE RIV_SYS2         ON UNIT   1018 AT TIME STEP      1, STRESS PERIOD    173
 UBDSV06 SAVING              RCH IN MODEL GWF_1            PACKAGE GWF_1           CONNECTED TO MODEL GWF_1            PACKAGE RCH_MSW          ON UNIT   1018 AT TIME STEP      1, STRESS PERIOD    173

 HEAD WILL BE SAVED ON UNIT 1017 AT END OF TIME STEP    1, STRESS PERIOD  173


  VOLUME BUDGET FOR ENTIRE MODEL AT END OF TIME STEP    1, STRESS PERIOD 173
  ---------------------------------------------------------------------------------------------------

     CUMULATIVE VOLUME      L**3       RATES FOR THIS TIME STEP      L**3/T          PACKAGE NAME    
     ------------------                 ------------------------                     ----------------

           IN:                                      IN:
           ---                                      ---
              STO-SS =      207373.1929                STO-SS =          82.5112     STORAGE                          
                 DRN =           0.0000                   DRN =           0.0000     DRN_SYS1                         
                 RIV =      115800.6258                   RIV =        1029.1863     RIV_SYS1                         
                 RIV =           0.0000                   RIV =           0.0000     RIV_SYS2                         
                 RCH =      251183.0808                   RCH =         594.4880     RCH_MSW                          

            TOTAL IN =      574356.8995              TOTAL IN =        1706.1855

          OUT:                                     OUT:
          ----                                     ----
              STO-SS =       15743.3802                STO-SS =           0.0000     STORAGE                          
                 DRN =       12012.3764                   DRN =          25.3925     DRN_SYS1                         
                 RIV =      509972.6019                   RIV =        1600.7812     RIV_SYS1                         
                 RIV =       33101.5344                   RIV =          80.0129     RIV_SYS2                         
                 RCH =        3527.1204                   RCH =           0.0000     RCH_MSW                          

           TOTAL OUT =      574357.0133             TOTAL OUT =        1706.1866

            IN - OUT =          -0.1138              IN - OUT =      -1.1039E-03

 PERCENT DISCREPANCY =          -0.00     PERCENT DISCREPANCY =          -0.00




         TIME SUMMARY AT END OF TIME STEP    1 IN STRESS PERIOD  173
                    SECONDS     MINUTES      HOURS       DAYS        YEARS
                    -----------------------------------------------------------
   TIME STEP LENGTH  86400.      1440.0      24.000      1.0000     2.73785E-03
 STRESS PERIOD TIME  86400.      1440.0      24.000      1.0000     2.73785E-03
         TOTAL TIME 1.49472E+07 2.49120E+05  4152.0      173.00     0.47365    


end timestep


start timestep kper="174" kstp="1" mode="normal"

 #Stressperiod Save Options

 BEGIN READING OUTPUT CONTROL FOR STRESS PERIOD 174
      ALL TIME STEPS WILL BE SAVED
      ALL TIME STEPS WILL BE SAVED

 END READING OUTPUT CONTROL FOR STRESS PERIOD 174


 PROCESSING STORAGE PERIOD DATA
 END PROCESSING STORAGE PERIOD DATA


 STRESS PERIOD 174 IS TRANSIENT


 REUSING DRNS FROM LAST STRESS PERIOD

 REUSING RIVS FROM LAST STRESS PERIOD

 REUSING RIVS FROM LAST STRESS PERIOD

 REUSING RCHS FROM LAST STRESS PERIOD
 UBDSV06 SAVING              DRN IN MODEL GWF_1            PACKAGE GWF_1           CONNECTED TO MODEL GWF_1            PACKAGE DRN_SYS1         ON UNIT   1018 AT TIME STEP      1, STRESS PERIOD    174
 UBDSV06 SAVING              RIV IN MODEL GWF_1            PACKAGE GWF_1           CONNECTED TO MODEL GWF_1            PACKAGE RIV_SYS1         ON UNIT   1018 AT TIME STEP      1, STRESS PERIOD    174
 UBDSV06 SAVING              RIV IN MODEL GWF_1            PACKAGE GWF_1           CONNECTED TO MODEL GWF_1            PACKAGE RIV_SYS2         ON UNIT   1018 AT TIME STEP      1, STRESS PERIOD    174
 UBDSV06 SAVING              RCH IN MODEL GWF_1            PACKAGE GWF_1           CONNECTED TO MODEL GWF_1            PACKAGE RCH_MSW          ON UNIT   1018 AT TIME STEP      1, STRESS PERIOD    174

 HEAD WILL BE SAVED ON UNIT 1017 AT END OF TIME STEP    1, STRESS PERIOD  174


  VOLUME BUDGET FOR ENTIRE MODEL AT END OF TIME STEP    1, STRESS PERIOD 174
  ---------------------------------------------------------------------------------------------------

     CUMULATIVE VOLUME      L**3       RATES FOR THIS TIME STEP      L**3/T          PACKAGE NAME    
     ------------------                 ------------------------                     ----------------

           IN:                                      IN:
           ---                                      ---
              STO-SS =      207465.3491                STO-SS =          92.1561     STORAGE                          
                 DRN =           0.0000                   DRN =           0.0000     DRN_SYS1                         
                 RIV =      116834.4415                   RIV =        1033.8158     RIV_SYS1                         
                 RIV =           0.0000                   RIV =           0.0000     RIV_SYS2                         
                 RCH =      251756.0261                   RCH =         572.9453     RCH_MSW                          

            TOTAL IN =      576055.8167              TOTAL IN =        1698.9172

          OUT:                                     OUT:
          ----                                     ----
              STO-SS =       15743.3802                STO-SS =           0.0000     STORAGE                          
                 DRN =       12037.6553                   DRN =          25.2789     DRN_SYS1                         
                 RIV =      511566.5282                   RIV =        1593.9263     RIV_SYS1                         
                 RIV =       33181.2481                   RIV =          79.7137     RIV_SYS2                         
                 RCH =        3527.1204                   RCH =           0.0000     RCH_MSW                          

           TOTAL OUT =      576055.9322             TOTAL OUT =        1698.9189

            IN - OUT =          -0.1156              IN - OUT =      -1.7315E-03

 PERCENT DISCREPANCY =          -0.00     PERCENT DISCREPANCY =          -0.00




         TIME SUMMARY AT END OF TIME STEP    1 IN STRESS PERIOD  174
                    SECONDS     MINUTES      HOURS       DAYS        YEARS
                    -----------------------------------------------------------
   TIME STEP LENGTH  86400.      1440.0      24.000      1.0000     2.73785E-03
 STRESS PERIOD TIME  86400.      1440.0      24.000      1.0000     2.73785E-03
         TOTAL TIME 1.50336E+07 2.50560E+05  4176.0      174.00     0.47639    


end timestep


start timestep kper="175" kstp="1" mode="normal"

 #Stressperiod Save Options

 BEGIN READING OUTPUT CONTROL FOR STRESS PERIOD 175
      ALL TIME STEPS WILL BE SAVED
      ALL TIME STEPS WILL BE SAVED

 END READING OUTPUT CONTROL FOR STRESS PERIOD 175


 PROCESSING STORAGE PERIOD DATA
 END PROCESSING STORAGE PERIOD DATA


 STRESS PERIOD 175 IS TRANSIENT


 REUSING DRNS FROM LAST STRESS PERIOD

 REUSING RIVS FROM LAST STRESS PERIOD

 REUSING RIVS FROM LAST STRESS PERIOD

 REUSING RCHS FROM LAST STRESS PERIOD
 UBDSV06 SAVING              DRN IN MODEL GWF_1            PACKAGE GWF_1           CONNECTED TO MODEL GWF_1            PACKAGE DRN_SYS1         ON UNIT   1018 AT TIME STEP      1, STRESS PERIOD    175
 UBDSV06 SAVING              RIV IN MODEL GWF_1            PACKAGE GWF_1           CONNECTED TO MODEL GWF_1            PACKAGE RIV_SYS1         ON UNIT   1018 AT TIME STEP      1, STRESS PERIOD    175
 UBDSV06 SAVING              RIV IN MODEL GWF_1            PACKAGE GWF_1           CONNECTED TO MODEL GWF_1            PACKAGE RIV_SYS2         ON UNIT   1018 AT TIME STEP      1, STRESS PERIOD    175
 UBDSV06 SAVING              RCH IN MODEL GWF_1            PACKAGE GWF_1           CONNECTED TO MODEL GWF_1            PACKAGE RCH_MSW          ON UNIT   1018 AT TIME STEP      1, STRESS PERIOD    175

 HEAD WILL BE SAVED ON UNIT 1017 AT END OF TIME STEP    1, STRESS PERIOD  175


  VOLUME BUDGET FOR ENTIRE MODEL AT END OF TIME STEP    1, STRESS PERIOD 175
  ---------------------------------------------------------------------------------------------------

     CUMULATIVE VOLUME      L**3       RATES FOR THIS TIME STEP      L**3/T          PACKAGE NAME    
     ------------------                 ------------------------                     ----------------

           IN:                                      IN:
           ---                                      ---
              STO-SS =      207567.6604                STO-SS =         102.3114     STORAGE                          
                 DRN =           0.0000                   DRN =           0.0000     DRN_SYS1                         
                 RIV =      117873.0801                   RIV =        1038.6385     RIV_SYS1                         
                 RIV =           0.0000                   RIV =           0.0000     RIV_SYS2                         
                 RCH =      252306.3750                   RCH =         550.3489     RCH_MSW                          

            TOTAL IN =      577747.1155              TOTAL IN =        1691.2989

          OUT:                                     OUT:
          ----                                     ----
              STO-SS =       15743.3802                STO-SS =           0.0000     STORAGE                          
                 DRN =       12062.8074                   DRN =          25.1521     DRN_SYS1                         
                 RIV =      513153.2996                   RIV =        1586.7714     RIV_SYS1                         
                 RIV =       33260.6247                   RIV =          79.3765     RIV_SYS2                         
                 RCH =        3527.1204                   RCH =           0.0000     RCH_MSW                          

           TOTAL OUT =      577747.2322             TOTAL OUT =        1691.3000

            IN - OUT =          -0.1167              IN - OUT =      -1.1600E-03

 PERCENT DISCREPANCY =          -0.00     PERCENT DISCREPANCY =          -0.00




         TIME SUMMARY AT END OF TIME STEP    1 IN STRESS PERIOD  175
                    SECONDS     MINUTES      HOURS       DAYS        YEARS
                    -----------------------------------------------------------
   TIME STEP LENGTH  86400.      1440.0      24.000      1.0000     2.73785E-03
 STRESS PERIOD TIME  86400.      1440.0      24.000      1.0000     2.73785E-03
         TOTAL TIME 1.51200E+07 2.52000E+05  4200.0      175.00     0.47912    


end timestep


start timestep kper="176" kstp="1" mode="normal"

 #Stressperiod Save Options

 BEGIN READING OUTPUT CONTROL FOR STRESS PERIOD 176
      ALL TIME STEPS WILL BE SAVED
      ALL TIME STEPS WILL BE SAVED

 END READING OUTPUT CONTROL FOR STRESS PERIOD 176


 PROCESSING STORAGE PERIOD DATA
 END PROCESSING STORAGE PERIOD DATA


 STRESS PERIOD 176 IS TRANSIENT


 REUSING DRNS FROM LAST STRESS PERIOD

 REUSING RIVS FROM LAST STRESS PERIOD

 REUSING RIVS FROM LAST STRESS PERIOD

 REUSING RCHS FROM LAST STRESS PERIOD
 UBDSV06 SAVING              DRN IN MODEL GWF_1            PACKAGE GWF_1           CONNECTED TO MODEL GWF_1            PACKAGE DRN_SYS1         ON UNIT   1018 AT TIME STEP      1, STRESS PERIOD    176
 UBDSV06 SAVING              RIV IN MODEL GWF_1            PACKAGE GWF_1           CONNECTED TO MODEL GWF_1            PACKAGE RIV_SYS1         ON UNIT   1018 AT TIME STEP      1, STRESS PERIOD    176
 UBDSV06 SAVING              RIV IN MODEL GWF_1            PACKAGE GWF_1           CONNECTED TO MODEL GWF_1            PACKAGE RIV_SYS2         ON UNIT   1018 AT TIME STEP      1, STRESS PERIOD    176
 UBDSV06 SAVING              RCH IN MODEL GWF_1            PACKAGE GWF_1           CONNECTED TO MODEL GWF_1            PACKAGE RCH_MSW          ON UNIT   1018 AT TIME STEP      1, STRESS PERIOD    176

 HEAD WILL BE SAVED ON UNIT 1017 AT END OF TIME STEP    1, STRESS PERIOD  176


  VOLUME BUDGET FOR ENTIRE MODEL AT END OF TIME STEP    1, STRESS PERIOD 176
  ---------------------------------------------------------------------------------------------------

     CUMULATIVE VOLUME      L**3       RATES FOR THIS TIME STEP      L**3/T          PACKAGE NAME    
     ------------------                 ------------------------                     ----------------

           IN:                                      IN:
           ---                                      ---
              STO-SS =      207644.2216                STO-SS =          76.5612     STORAGE                          
                 DRN =           0.0000                   DRN =           0.0000     DRN_SYS1                         
                 RIV =      118914.9539                   RIV =        1041.8738     RIV_SYS1                         
                 RIV =           0.0000                   RIV =           0.0000     RIV_SYS2                         
                 RCH =      252873.6641                   RCH =         567.2891     RCH_MSW                          

            TOTAL IN =      579432.8396              TOTAL IN =        1685.7241

          OUT:                                     OUT:
          ----                                     ----
              STO-SS =       15743.3802                STO-SS =           0.0000     STORAGE                          
                 DRN =       12087.8601                   DRN =          25.0527     DRN_SYS1                         
                 RIV =      514734.8490                   RIV =        1581.5495     RIV_SYS1                         
                 RIV =       33339.7484                   RIV =          79.1237     RIV_SYS2                         
                 RCH =        3527.1204                   RCH =           0.0000     RCH_MSW                          

           TOTAL OUT =      579432.9581             TOTAL OUT =        1685.7259

            IN - OUT =          -0.1185              IN - OUT =      -1.8019E-03

 PERCENT DISCREPANCY =          -0.00     PERCENT DISCREPANCY =          -0.00




         TIME SUMMARY AT END OF TIME STEP    1 IN STRESS PERIOD  176
                    SECONDS     MINUTES      HOURS       DAYS        YEARS
                    -----------------------------------------------------------
   TIME STEP LENGTH  86400.      1440.0      24.000      1.0000     2.73785E-03
 STRESS PERIOD TIME  86400.      1440.0      24.000      1.0000     2.73785E-03
         TOTAL TIME 1.52064E+07 2.53440E+05  4224.0      176.00     0.48186    


end timestep


start timestep kper="177" kstp="1" mode="normal"

 #Stressperiod Save Options

 BEGIN READING OUTPUT CONTROL FOR STRESS PERIOD 177
      ALL TIME STEPS WILL BE SAVED
      ALL TIME STEPS WILL BE SAVED

 END READING OUTPUT CONTROL FOR STRESS PERIOD 177


 PROCESSING STORAGE PERIOD DATA
 END PROCESSING STORAGE PERIOD DATA


 STRESS PERIOD 177 IS TRANSIENT


 REUSING DRNS FROM LAST STRESS PERIOD

 REUSING RIVS FROM LAST STRESS PERIOD

 REUSING RIVS FROM LAST STRESS PERIOD

 REUSING RCHS FROM LAST STRESS PERIOD
 UBDSV06 SAVING              DRN IN MODEL GWF_1            PACKAGE GWF_1           CONNECTED TO MODEL GWF_1            PACKAGE DRN_SYS1         ON UNIT   1018 AT TIME STEP      1, STRESS PERIOD    177
 UBDSV06 SAVING              RIV IN MODEL GWF_1            PACKAGE GWF_1           CONNECTED TO MODEL GWF_1            PACKAGE RIV_SYS1         ON UNIT   1018 AT TIME STEP      1, STRESS PERIOD    177
 UBDSV06 SAVING              RIV IN MODEL GWF_1            PACKAGE GWF_1           CONNECTED TO MODEL GWF_1            PACKAGE RIV_SYS2         ON UNIT   1018 AT TIME STEP      1, STRESS PERIOD    177
 UBDSV06 SAVING              RCH IN MODEL GWF_1            PACKAGE GWF_1           CONNECTED TO MODEL GWF_1            PACKAGE RCH_MSW          ON UNIT   1018 AT TIME STEP      1, STRESS PERIOD    177

 HEAD WILL BE SAVED ON UNIT 1017 AT END OF TIME STEP    1, STRESS PERIOD  177


  VOLUME BUDGET FOR ENTIRE MODEL AT END OF TIME STEP    1, STRESS PERIOD 177
  ---------------------------------------------------------------------------------------------------

     CUMULATIVE VOLUME      L**3       RATES FOR THIS TIME STEP      L**3/T          PACKAGE NAME    
     ------------------                 ------------------------                     ----------------

           IN:                                      IN:
           ---                                      ---
              STO-SS =      207767.6557                STO-SS =         123.4341     STORAGE                          
                 DRN =           0.0000                   DRN =           0.0000     DRN_SYS1                         
                 RIV =      119963.0206                   RIV =        1048.0667     RIV_SYS1                         
                 RIV =           0.0000                   RIV =           0.0000     RIV_SYS2                         
                 RCH =      253379.8933                   RCH =         506.2292     RCH_MSW                          

            TOTAL IN =      581110.5696              TOTAL IN =        1677.7300

          OUT:                                     OUT:
          ----                                     ----
              STO-SS =       15743.3802                STO-SS =           0.0000     STORAGE                          
                 DRN =       12112.7615                   DRN =          24.9014     DRN_SYS1                         
                 RIV =      516308.9607                   RIV =        1574.1117     RIV_SYS1                         
                 RIV =       33418.4657                   RIV =          78.7174     RIV_SYS2                         
                 RCH =        3527.1204                   RCH =           0.0000     RCH_MSW                          

           TOTAL OUT =      581110.6886             TOTAL OUT =        1677.7304

            IN - OUT =          -0.1190              IN - OUT =      -4.3226E-04

 PERCENT DISCREPANCY =          -0.00     PERCENT DISCREPANCY =          -0.00




         TIME SUMMARY AT END OF TIME STEP    1 IN STRESS PERIOD  177
                    SECONDS     MINUTES      HOURS       DAYS        YEARS
                    -----------------------------------------------------------
   TIME STEP LENGTH  86400.      1440.0      24.000      1.0000     2.73785E-03
 STRESS PERIOD TIME  86400.      1440.0      24.000      1.0000     2.73785E-03
         TOTAL TIME 1.52928E+07 2.54880E+05  4248.0      177.00     0.48460    


end timestep


start timestep kper="178" kstp="1" mode="normal"

 #Stressperiod Save Options

 BEGIN READING OUTPUT CONTROL FOR STRESS PERIOD 178
      ALL TIME STEPS WILL BE SAVED
      ALL TIME STEPS WILL BE SAVED

 END READING OUTPUT CONTROL FOR STRESS PERIOD 178


 PROCESSING STORAGE PERIOD DATA
 END PROCESSING STORAGE PERIOD DATA


 STRESS PERIOD 178 IS TRANSIENT


 REUSING DRNS FROM LAST STRESS PERIOD

 REUSING RIVS FROM LAST STRESS PERIOD

 REUSING RIVS FROM LAST STRESS PERIOD

 REUSING RCHS FROM LAST STRESS PERIOD
 UBDSV06 SAVING              DRN IN MODEL GWF_1            PACKAGE GWF_1           CONNECTED TO MODEL GWF_1            PACKAGE DRN_SYS1         ON UNIT   1018 AT TIME STEP      1, STRESS PERIOD    178
 UBDSV06 SAVING              RIV IN MODEL GWF_1            PACKAGE GWF_1           CONNECTED TO MODEL GWF_1            PACKAGE RIV_SYS1         ON UNIT   1018 AT TIME STEP      1, STRESS PERIOD    178
 UBDSV06 SAVING              RIV IN MODEL GWF_1            PACKAGE GWF_1           CONNECTED TO MODEL GWF_1            PACKAGE RIV_SYS2         ON UNIT   1018 AT TIME STEP      1, STRESS PERIOD    178
 UBDSV06 SAVING              RCH IN MODEL GWF_1            PACKAGE GWF_1           CONNECTED TO MODEL GWF_1            PACKAGE RCH_MSW          ON UNIT   1018 AT TIME STEP      1, STRESS PERIOD    178

 HEAD WILL BE SAVED ON UNIT 1017 AT END OF TIME STEP    1, STRESS PERIOD  178


  VOLUME BUDGET FOR ENTIRE MODEL AT END OF TIME STEP    1, STRESS PERIOD 178
  ---------------------------------------------------------------------------------------------------

     CUMULATIVE VOLUME      L**3       RATES FOR THIS TIME STEP      L**3/T          PACKAGE NAME    
     ------------------                 ------------------------                     ----------------

           IN:                                      IN:
           ---                                      ---
              STO-SS =      207898.2650                STO-SS =         130.6093     STORAGE                          
                 DRN =           0.0000                   DRN =           0.0000     DRN_SYS1                         
                 RIV =      121017.0814                   RIV =        1054.0608     RIV_SYS1                         
                 RIV =           0.0000                   RIV =           0.0000     RIV_SYS2                         
                 RCH =      253865.2657                   RCH =         485.3724     RCH_MSW                          

            TOTAL IN =      582780.6121              TOTAL IN =        1670.0424

          OUT:                                     OUT:
          ----                                     ----
              STO-SS =       15743.3802                STO-SS =           0.0000     STORAGE                          
                 DRN =       12137.5001                   DRN =          24.7386     DRN_SYS1                         
                 RIV =      517875.9868                   RIV =        1567.0261     RIV_SYS1                         
                 RIV =       33496.7433                   RIV =          78.2776     RIV_SYS2                         
                 RCH =        3527.1204                   RCH =           0.0000     RCH_MSW                          

           TOTAL OUT =      582780.7309             TOTAL OUT =        1670.0423

            IN - OUT =          -0.1188              IN - OUT =       1.3497E-04

 PERCENT DISCREPANCY =          -0.00     PERCENT DISCREPANCY =           0.00




         TIME SUMMARY AT END OF TIME STEP    1 IN STRESS PERIOD  178
                    SECONDS     MINUTES      HOURS       DAYS        YEARS
                    -----------------------------------------------------------
   TIME STEP LENGTH  86400.      1440.0      24.000      1.0000     2.73785E-03
 STRESS PERIOD TIME  86400.      1440.0      24.000      1.0000     2.73785E-03
         TOTAL TIME 1.53792E+07 2.56320E+05  4272.0      178.00     0.48734    


end timestep


start timestep kper="179" kstp="1" mode="normal"

 #Stressperiod Save Options

 BEGIN READING OUTPUT CONTROL FOR STRESS PERIOD 179
      ALL TIME STEPS WILL BE SAVED
      ALL TIME STEPS WILL BE SAVED

 END READING OUTPUT CONTROL FOR STRESS PERIOD 179


 PROCESSING STORAGE PERIOD DATA
 END PROCESSING STORAGE PERIOD DATA


 STRESS PERIOD 179 IS TRANSIENT


 REUSING DRNS FROM LAST STRESS PERIOD

 REUSING RIVS FROM LAST STRESS PERIOD

 REUSING RIVS FROM LAST STRESS PERIOD

 REUSING RCHS FROM LAST STRESS PERIOD
 UBDSV06 SAVING              DRN IN MODEL GWF_1            PACKAGE GWF_1           CONNECTED TO MODEL GWF_1            PACKAGE DRN_SYS1         ON UNIT   1018 AT TIME STEP      1, STRESS PERIOD    179
 UBDSV06 SAVING              RIV IN MODEL GWF_1            PACKAGE GWF_1           CONNECTED TO MODEL GWF_1            PACKAGE RIV_SYS1         ON UNIT   1018 AT TIME STEP      1, STRESS PERIOD    179
 UBDSV06 SAVING              RIV IN MODEL GWF_1            PACKAGE GWF_1           CONNECTED TO MODEL GWF_1            PACKAGE RIV_SYS2         ON UNIT   1018 AT TIME STEP      1, STRESS PERIOD    179
 UBDSV06 SAVING              RCH IN MODEL GWF_1            PACKAGE GWF_1           CONNECTED TO MODEL GWF_1            PACKAGE RCH_MSW          ON UNIT   1018 AT TIME STEP      1, STRESS PERIOD    179

 HEAD WILL BE SAVED ON UNIT 1017 AT END OF TIME STEP    1, STRESS PERIOD  179


  VOLUME BUDGET FOR ENTIRE MODEL AT END OF TIME STEP    1, STRESS PERIOD 179
  ---------------------------------------------------------------------------------------------------

     CUMULATIVE VOLUME      L**3       RATES FOR THIS TIME STEP      L**3/T          PACKAGE NAME    
     ------------------                 ------------------------                     ----------------

           IN:                                      IN:
           ---                                      ---
              STO-SS =      208035.5953                STO-SS =         137.3303     STORAGE                          
                 DRN =           0.0000                   DRN =           0.0000     DRN_SYS1                         
                 RIV =      122076.9472                   RIV =        1059.8658     RIV_SYS1                         
                 RIV =           0.0000                   RIV =           0.0000     RIV_SYS2                         
                 RCH =      254330.4811                   RCH =         465.2155     RCH_MSW                          

            TOTAL IN =      584443.0237              TOTAL IN =        1662.4116

          OUT:                                     OUT:
          ----                                     ----
              STO-SS =       15743.3802                STO-SS =           0.0000     STORAGE                          
                 DRN =       12162.0667                   DRN =          24.5666     DRN_SYS1                         
                 RIV =      519436.0209                   RIV =        1560.0341     RIV_SYS1                         
                 RIV =       33574.5546                   RIV =          77.8113     RIV_SYS2                         
                 RCH =        3527.1204                   RCH =           0.0000     RCH_MSW                          

           TOTAL OUT =      584443.1429             TOTAL OUT =        1662.4120

            IN - OUT =          -0.1192              IN - OUT =      -3.6282E-04

 PERCENT DISCREPANCY =          -0.00     PERCENT DISCREPANCY =          -0.00




         TIME SUMMARY AT END OF TIME STEP    1 IN STRESS PERIOD  179
                    SECONDS     MINUTES      HOURS       DAYS        YEARS
                    -----------------------------------------------------------
   TIME STEP LENGTH  86400.      1440.0      24.000      1.0000     2.73785E-03
 STRESS PERIOD TIME  86400.      1440.0      24.000      1.0000     2.73785E-03
         TOTAL TIME 1.54656E+07 2.57760E+05  4296.0      179.00     0.49008    


end timestep


start timestep kper="180" kstp="1" mode="normal"

 #Stressperiod Save Options

 BEGIN READING OUTPUT CONTROL FOR STRESS PERIOD 180
      ALL TIME STEPS WILL BE SAVED
      ALL TIME STEPS WILL BE SAVED

 END READING OUTPUT CONTROL FOR STRESS PERIOD 180


 PROCESSING STORAGE PERIOD DATA
 END PROCESSING STORAGE PERIOD DATA


 STRESS PERIOD 180 IS TRANSIENT


 REUSING DRNS FROM LAST STRESS PERIOD

 REUSING RIVS FROM LAST STRESS PERIOD

 REUSING RIVS FROM LAST STRESS PERIOD

 REUSING RCHS FROM LAST STRESS PERIOD
 UBDSV06 SAVING              DRN IN MODEL GWF_1            PACKAGE GWF_1           CONNECTED TO MODEL GWF_1            PACKAGE DRN_SYS1         ON UNIT   1018 AT TIME STEP      1, STRESS PERIOD    180
 UBDSV06 SAVING              RIV IN MODEL GWF_1            PACKAGE GWF_1           CONNECTED TO MODEL GWF_1            PACKAGE RIV_SYS1         ON UNIT   1018 AT TIME STEP      1, STRESS PERIOD    180
 UBDSV06 SAVING              RIV IN MODEL GWF_1            PACKAGE GWF_1           CONNECTED TO MODEL GWF_1            PACKAGE RIV_SYS2         ON UNIT   1018 AT TIME STEP      1, STRESS PERIOD    180
 UBDSV06 SAVING              RCH IN MODEL GWF_1            PACKAGE GWF_1           CONNECTED TO MODEL GWF_1            PACKAGE RCH_MSW          ON UNIT   1018 AT TIME STEP      1, STRESS PERIOD    180

 HEAD WILL BE SAVED ON UNIT 1017 AT END OF TIME STEP    1, STRESS PERIOD  180


  VOLUME BUDGET FOR ENTIRE MODEL AT END OF TIME STEP    1, STRESS PERIOD 180
  ---------------------------------------------------------------------------------------------------

     CUMULATIVE VOLUME      L**3       RATES FOR THIS TIME STEP      L**3/T          PACKAGE NAME    
     ------------------                 ------------------------                     ----------------

           IN:                                      IN:
           ---                                      ---
              STO-SS =      208179.1601                STO-SS =         143.5648     STORAGE                          
                 DRN =           0.0000                   DRN =           0.0000     DRN_SYS1                         
                 RIV =      123142.5162                   RIV =        1065.5690     RIV_SYS1                         
                 RIV =           0.0000                   RIV =           0.0000     RIV_SYS2                         
                 RCH =      254776.1613                   RCH =         445.6801     RCH_MSW                          

            TOTAL IN =      586097.8375              TOTAL IN =        1654.8139

          OUT:                                     OUT:
          ----                                     ----
              STO-SS =       15743.3802                STO-SS =           0.0000     STORAGE                          
                 DRN =       12186.4532                   DRN =          24.3865     DRN_SYS1                         
                 RIV =      520989.1235                   RIV =        1553.1026     RIV_SYS1                         
                 RIV =       33651.8785                   RIV =          77.3239     RIV_SYS2                         
                 RCH =        3527.1204                   RCH =           0.0000     RCH_MSW                          

           TOTAL OUT =      586097.9558             TOTAL OUT =        1654.8130

            IN - OUT =          -0.1183              IN - OUT =       8.8495E-04

 PERCENT DISCREPANCY =          -0.00     PERCENT DISCREPANCY =           0.00




         TIME SUMMARY AT END OF TIME STEP    1 IN STRESS PERIOD  180
                    SECONDS     MINUTES      HOURS       DAYS        YEARS
                    -----------------------------------------------------------
   TIME STEP LENGTH  86400.      1440.0      24.000      1.0000     2.73785E-03
 STRESS PERIOD TIME  86400.      1440.0      24.000      1.0000     2.73785E-03
         TOTAL TIME 1.55520E+07 2.59200E+05  4320.0      180.00     0.49281    


end timestep


start timestep kper="181" kstp="1" mode="normal"

 #Stressperiod Save Options

 BEGIN READING OUTPUT CONTROL FOR STRESS PERIOD 181
      ALL TIME STEPS WILL BE SAVED
      ALL TIME STEPS WILL BE SAVED

 END READING OUTPUT CONTROL FOR STRESS PERIOD 181


 PROCESSING STORAGE PERIOD DATA
 END PROCESSING STORAGE PERIOD DATA


 STRESS PERIOD 181 IS TRANSIENT


 REUSING DRNS FROM LAST STRESS PERIOD

 REUSING RIVS FROM LAST STRESS PERIOD

 REUSING RIVS FROM LAST STRESS PERIOD

 REUSING RCHS FROM LAST STRESS PERIOD
 UBDSV06 SAVING              DRN IN MODEL GWF_1            PACKAGE GWF_1           CONNECTED TO MODEL GWF_1            PACKAGE DRN_SYS1         ON UNIT   1018 AT TIME STEP      1, STRESS PERIOD    181
 UBDSV06 SAVING              RIV IN MODEL GWF_1            PACKAGE GWF_1           CONNECTED TO MODEL GWF_1            PACKAGE RIV_SYS1         ON UNIT   1018 AT TIME STEP      1, STRESS PERIOD    181
 UBDSV06 SAVING              RIV IN MODEL GWF_1            PACKAGE GWF_1           CONNECTED TO MODEL GWF_1            PACKAGE RIV_SYS2         ON UNIT   1018 AT TIME STEP      1, STRESS PERIOD    181
 UBDSV06 SAVING              RCH IN MODEL GWF_1            PACKAGE GWF_1           CONNECTED TO MODEL GWF_1            PACKAGE RCH_MSW          ON UNIT   1018 AT TIME STEP      1, STRESS PERIOD    181

 HEAD WILL BE SAVED ON UNIT 1017 AT END OF TIME STEP    1, STRESS PERIOD  181


  VOLUME BUDGET FOR ENTIRE MODEL AT END OF TIME STEP    1, STRESS PERIOD 181
  ---------------------------------------------------------------------------------------------------

     CUMULATIVE VOLUME      L**3       RATES FOR THIS TIME STEP      L**3/T          PACKAGE NAME    
     ------------------                 ------------------------                     ----------------

           IN:                                      IN:
           ---                                      ---
              STO-SS =      208328.5572                STO-SS =         149.3971     STORAGE                          
                 DRN =           0.0000                   DRN =           0.0000     DRN_SYS1                         
                 RIV =      124213.7153                   RIV =        1071.1991     RIV_SYS1                         
                 RIV =           0.0000                   RIV =           0.0000     RIV_SYS2                         
                 RCH =      255202.8338                   RCH =         426.6725     RCH_MSW                          

            TOTAL IN =      587745.1063              TOTAL IN =        1647.2688

          OUT:                                     OUT:
          ----                                     ----
              STO-SS =       15743.3802                STO-SS =           0.0000     STORAGE                          
                 DRN =       12210.6536                   DRN =          24.2005     DRN_SYS1                         
                 RIV =      522535.3715                   RIV =        1546.2480     RIV_SYS1                         
                 RIV =       33728.6986                   RIV =          76.8200     RIV_SYS2                         
                 RCH =        3527.1204                   RCH =           0.0000     RCH_MSW                          

           TOTAL OUT =      587745.2243             TOTAL OUT =        1647.2684

            IN - OUT =          -0.1180              IN - OUT =       3.1538E-04

 PERCENT DISCREPANCY =          -0.00     PERCENT DISCREPANCY =           0.00




         TIME SUMMARY AT END OF TIME STEP    1 IN STRESS PERIOD  181
                    SECONDS     MINUTES      HOURS       DAYS        YEARS
                    -----------------------------------------------------------
   TIME STEP LENGTH  86400.      1440.0      24.000      1.0000     2.73785E-03
 STRESS PERIOD TIME  86400.      1440.0      24.000      1.0000     2.73785E-03
         TOTAL TIME 1.56384E+07 2.60640E+05  4344.0      181.00     0.49555    


end timestep


start timestep kper="182" kstp="1" mode="normal"

 #Stressperiod Save Options

 BEGIN READING OUTPUT CONTROL FOR STRESS PERIOD 182
      ALL TIME STEPS WILL BE SAVED
      ALL TIME STEPS WILL BE SAVED

 END READING OUTPUT CONTROL FOR STRESS PERIOD 182


 PROCESSING STORAGE PERIOD DATA
 END PROCESSING STORAGE PERIOD DATA


 STRESS PERIOD 182 IS TRANSIENT


 REUSING DRNS FROM LAST STRESS PERIOD

 REUSING RIVS FROM LAST STRESS PERIOD

 REUSING RIVS FROM LAST STRESS PERIOD

 REUSING RCHS FROM LAST STRESS PERIOD
 UBDSV06 SAVING              DRN IN MODEL GWF_1            PACKAGE GWF_1           CONNECTED TO MODEL GWF_1            PACKAGE DRN_SYS1         ON UNIT   1018 AT TIME STEP      1, STRESS PERIOD    182
 UBDSV06 SAVING              RIV IN MODEL GWF_1            PACKAGE GWF_1           CONNECTED TO MODEL GWF_1            PACKAGE RIV_SYS1         ON UNIT   1018 AT TIME STEP      1, STRESS PERIOD    182
 UBDSV06 SAVING              RIV IN MODEL GWF_1            PACKAGE GWF_1           CONNECTED TO MODEL GWF_1            PACKAGE RIV_SYS2         ON UNIT   1018 AT TIME STEP      1, STRESS PERIOD    182
 UBDSV06 SAVING              RCH IN MODEL GWF_1            PACKAGE GWF_1           CONNECTED TO MODEL GWF_1            PACKAGE RCH_MSW          ON UNIT   1018 AT TIME STEP      1, STRESS PERIOD    182

 HEAD WILL BE SAVED ON UNIT 1017 AT END OF TIME STEP    1, STRESS PERIOD  182


  VOLUME BUDGET FOR ENTIRE MODEL AT END OF TIME STEP    1, STRESS PERIOD 182
  ---------------------------------------------------------------------------------------------------

     CUMULATIVE VOLUME      L**3       RATES FOR THIS TIME STEP      L**3/T          PACKAGE NAME    
     ------------------                 ------------------------                     ----------------

           IN:                                      IN:
           ---                                      ---
              STO-SS =      208483.3219                STO-SS =         154.7646     STORAGE                          
                 DRN =           0.0000                   DRN =           0.0000     DRN_SYS1                         
                 RIV =      125290.5045                   RIV =        1076.7892     RIV_SYS1                         
                 RIV =           0.0000                   RIV =           0.0000     RIV_SYS2                         
                 RCH =      255611.1082                   RCH =         408.2745     RCH_MSW                          

            TOTAL IN =      589384.9346              TOTAL IN =        1639.8283

          OUT:                                     OUT:
          ----                                     ----
              STO-SS =       15743.3802                STO-SS =           0.0000     STORAGE                          
                 DRN =       12234.6638                   DRN =          24.0101     DRN_SYS1                         
                 RIV =      524074.7377                   RIV =        1539.3662     RIV_SYS1                         
                 RIV =       33805.0035                   RIV =          76.3050     RIV_SYS2                         
                 RCH =        3527.2677                   RCH =           0.1473     RCH_MSW                          

           TOTAL OUT =      589385.0529             TOTAL OUT =        1639.8286

            IN - OUT =          -0.1183              IN - OUT =      -3.3220E-04

 PERCENT DISCREPANCY =          -0.00     PERCENT DISCREPANCY =          -0.00




         TIME SUMMARY AT END OF TIME STEP    1 IN STRESS PERIOD  182
                    SECONDS     MINUTES      HOURS       DAYS        YEARS
                    -----------------------------------------------------------
   TIME STEP LENGTH  86400.      1440.0      24.000      1.0000     2.73785E-03
 STRESS PERIOD TIME  86400.      1440.0      24.000      1.0000     2.73785E-03
         TOTAL TIME 1.57248E+07 2.62080E+05  4368.0      182.00     0.49829    


end timestep


start timestep kper="183" kstp="1" mode="normal"

 #Stressperiod Save Options

 BEGIN READING OUTPUT CONTROL FOR STRESS PERIOD 183
      ALL TIME STEPS WILL BE SAVED
      ALL TIME STEPS WILL BE SAVED

 END READING OUTPUT CONTROL FOR STRESS PERIOD 183


 PROCESSING STORAGE PERIOD DATA
 END PROCESSING STORAGE PERIOD DATA


 STRESS PERIOD 183 IS TRANSIENT


 REUSING DRNS FROM LAST STRESS PERIOD

 REUSING RIVS FROM LAST STRESS PERIOD

 REUSING RIVS FROM LAST STRESS PERIOD

 REUSING RCHS FROM LAST STRESS PERIOD
 UBDSV06 SAVING              DRN IN MODEL GWF_1            PACKAGE GWF_1           CONNECTED TO MODEL GWF_1            PACKAGE DRN_SYS1         ON UNIT   1018 AT TIME STEP      1, STRESS PERIOD    183
 UBDSV06 SAVING              RIV IN MODEL GWF_1            PACKAGE GWF_1           CONNECTED TO MODEL GWF_1            PACKAGE RIV_SYS1         ON UNIT   1018 AT TIME STEP      1, STRESS PERIOD    183
 UBDSV06 SAVING              RIV IN MODEL GWF_1            PACKAGE GWF_1           CONNECTED TO MODEL GWF_1            PACKAGE RIV_SYS2         ON UNIT   1018 AT TIME STEP      1, STRESS PERIOD    183
 UBDSV06 SAVING              RCH IN MODEL GWF_1            PACKAGE GWF_1           CONNECTED TO MODEL GWF_1            PACKAGE RCH_MSW          ON UNIT   1018 AT TIME STEP      1, STRESS PERIOD    183

 HEAD WILL BE SAVED ON UNIT 1017 AT END OF TIME STEP    1, STRESS PERIOD  183


  VOLUME BUDGET FOR ENTIRE MODEL AT END OF TIME STEP    1, STRESS PERIOD 183
  ---------------------------------------------------------------------------------------------------

     CUMULATIVE VOLUME      L**3       RATES FOR THIS TIME STEP      L**3/T          PACKAGE NAME    
     ------------------                 ------------------------                     ----------------

           IN:                                      IN:
           ---                                      ---
              STO-SS =      208642.8711                STO-SS =         159.5492     STORAGE                          
                 DRN =           0.0000                   DRN =           0.0000     DRN_SYS1                         
                 RIV =      126372.7802                   RIV =        1082.2756     RIV_SYS1                         
                 RIV =           0.0000                   RIV =           0.0000     RIV_SYS2                         
                 RCH =      256001.9301                   RCH =         390.8219     RCH_MSW                          

            TOTAL IN =      591017.5813              TOTAL IN =        1632.6467

          OUT:                                     OUT:
          ----                                     ----
              STO-SS =       15743.3802                STO-SS =           0.0000     STORAGE                          
                 DRN =       12258.4794                   DRN =          23.8156     DRN_SYS1                         
                 RIV =      525607.3181                   RIV =        1532.5804     RIV_SYS1                         
                 RIV =       33880.7825                   RIV =          75.7790     RIV_SYS2                         
                 RCH =        3527.7393                   RCH =           0.4716     RCH_MSW                          

           TOTAL OUT =      591017.6996             TOTAL OUT =        1632.6467

            IN - OUT =          -0.1183              IN - OUT =       4.5060E-05

 PERCENT DISCREPANCY =          -0.00     PERCENT DISCREPANCY =           0.00




         TIME SUMMARY AT END OF TIME STEP    1 IN STRESS PERIOD  183
                    SECONDS     MINUTES      HOURS       DAYS        YEARS
                    -----------------------------------------------------------
   TIME STEP LENGTH  86400.      1440.0      24.000      1.0000     2.73785E-03
 STRESS PERIOD TIME  86400.      1440.0      24.000      1.0000     2.73785E-03
         TOTAL TIME 1.58112E+07 2.63520E+05  4392.0      183.00     0.50103    


end timestep


start timestep kper="184" kstp="1" mode="normal"

 #Stressperiod Save Options

 BEGIN READING OUTPUT CONTROL FOR STRESS PERIOD 184
      ALL TIME STEPS WILL BE SAVED
      ALL TIME STEPS WILL BE SAVED

 END READING OUTPUT CONTROL FOR STRESS PERIOD 184


 PROCESSING STORAGE PERIOD DATA
 END PROCESSING STORAGE PERIOD DATA


 STRESS PERIOD 184 IS TRANSIENT


 REUSING DRNS FROM LAST STRESS PERIOD

 REUSING RIVS FROM LAST STRESS PERIOD

 REUSING RIVS FROM LAST STRESS PERIOD

 REUSING RCHS FROM LAST STRESS PERIOD
 UBDSV06 SAVING              DRN IN MODEL GWF_1            PACKAGE GWF_1           CONNECTED TO MODEL GWF_1            PACKAGE DRN_SYS1         ON UNIT   1018 AT TIME STEP      1, STRESS PERIOD    184
 UBDSV06 SAVING              RIV IN MODEL GWF_1            PACKAGE GWF_1           CONNECTED TO MODEL GWF_1            PACKAGE RIV_SYS1         ON UNIT   1018 AT TIME STEP      1, STRESS PERIOD    184
 UBDSV06 SAVING              RIV IN MODEL GWF_1            PACKAGE GWF_1           CONNECTED TO MODEL GWF_1            PACKAGE RIV_SYS2         ON UNIT   1018 AT TIME STEP      1, STRESS PERIOD    184
 UBDSV06 SAVING              RCH IN MODEL GWF_1            PACKAGE GWF_1           CONNECTED TO MODEL GWF_1            PACKAGE RCH_MSW          ON UNIT   1018 AT TIME STEP      1, STRESS PERIOD    184

 HEAD WILL BE SAVED ON UNIT 1017 AT END OF TIME STEP    1, STRESS PERIOD  184


  VOLUME BUDGET FOR ENTIRE MODEL AT END OF TIME STEP    1, STRESS PERIOD 184
  ---------------------------------------------------------------------------------------------------

     CUMULATIVE VOLUME      L**3       RATES FOR THIS TIME STEP      L**3/T          PACKAGE NAME    
     ------------------                 ------------------------                     ----------------

           IN:                                      IN:
           ---                                      ---
              STO-SS =      208804.0177                STO-SS =         161.1466     STORAGE                          
                 DRN =           0.0000                   DRN =           0.0000     DRN_SYS1                         
                 RIV =      127460.4394                   RIV =        1087.6592     RIV_SYS1                         
                 RIV =           0.0000                   RIV =           0.0000     RIV_SYS2                         
                 RCH =      256378.9955                   RCH =         377.0655     RCH_MSW                          

            TOTAL IN =      592643.4526              TOTAL IN =        1625.8712

          OUT:                                     OUT:
          ----                                     ----
              STO-SS =       15743.3802                STO-SS =           0.0000     STORAGE                          
                 DRN =       12282.1055                   DRN =          23.6261     DRN_SYS1                         
                 RIV =      527133.1440                   RIV =        1525.8259     RIV_SYS1                         
                 RIV =       33956.0326                   RIV =          75.2501     RIV_SYS2                         
                 RCH =        3528.9098                   RCH =           1.1704     RCH_MSW                          

           TOTAL OUT =      592643.5721             TOTAL OUT =        1625.8725

            IN - OUT =          -0.1195              IN - OUT =      -1.2611E-03

 PERCENT DISCREPANCY =          -0.00     PERCENT DISCREPANCY =          -0.00




         TIME SUMMARY AT END OF TIME STEP    1 IN STRESS PERIOD  184
                    SECONDS     MINUTES      HOURS       DAYS        YEARS
                    -----------------------------------------------------------
   TIME STEP LENGTH  86400.      1440.0      24.000      1.0000     2.73785E-03
 STRESS PERIOD TIME  86400.      1440.0      24.000      1.0000     2.73785E-03
         TOTAL TIME 1.58976E+07 2.64960E+05  4416.0      184.00     0.50376    


end timestep


start timestep kper="185" kstp="1" mode="normal"

 #Stressperiod Save Options

 BEGIN READING OUTPUT CONTROL FOR STRESS PERIOD 185
      ALL TIME STEPS WILL BE SAVED
      ALL TIME STEPS WILL BE SAVED

 END READING OUTPUT CONTROL FOR STRESS PERIOD 185


 PROCESSING STORAGE PERIOD DATA
 END PROCESSING STORAGE PERIOD DATA


 STRESS PERIOD 185 IS TRANSIENT


 REUSING DRNS FROM LAST STRESS PERIOD

 REUSING RIVS FROM LAST STRESS PERIOD

 REUSING RIVS FROM LAST STRESS PERIOD

 REUSING RCHS FROM LAST STRESS PERIOD
 UBDSV06 SAVING              DRN IN MODEL GWF_1            PACKAGE GWF_1           CONNECTED TO MODEL GWF_1            PACKAGE DRN_SYS1         ON UNIT   1018 AT TIME STEP      1, STRESS PERIOD    185
 UBDSV06 SAVING              RIV IN MODEL GWF_1            PACKAGE GWF_1           CONNECTED TO MODEL GWF_1            PACKAGE RIV_SYS1         ON UNIT   1018 AT TIME STEP      1, STRESS PERIOD    185
 UBDSV06 SAVING              RIV IN MODEL GWF_1            PACKAGE GWF_1           CONNECTED TO MODEL GWF_1            PACKAGE RIV_SYS2         ON UNIT   1018 AT TIME STEP      1, STRESS PERIOD    185
 UBDSV06 SAVING              RCH IN MODEL GWF_1            PACKAGE GWF_1           CONNECTED TO MODEL GWF_1            PACKAGE RCH_MSW          ON UNIT   1018 AT TIME STEP      1, STRESS PERIOD    185

 HEAD WILL BE SAVED ON UNIT 1017 AT END OF TIME STEP    1, STRESS PERIOD  185


  VOLUME BUDGET FOR ENTIRE MODEL AT END OF TIME STEP    1, STRESS PERIOD 185
  ---------------------------------------------------------------------------------------------------

     CUMULATIVE VOLUME      L**3       RATES FOR THIS TIME STEP      L**3/T          PACKAGE NAME    
     ------------------                 ------------------------                     ----------------

           IN:                                      IN:
           ---                                      ---
              STO-SS =      208969.0082                STO-SS =         164.9906     STORAGE                          
                 DRN =           0.0000                   DRN =           0.0000     DRN_SYS1                         
                 RIV =      128553.3662                   RIV =        1092.9268     RIV_SYS1                         
                 RIV =           0.0000                   RIV =           0.0000     RIV_SYS2                         
                 RCH =      256740.3197                   RCH =         361.3241     RCH_MSW                          

            TOTAL IN =      594262.6941              TOTAL IN =        1619.2415

          OUT:                                     OUT:
          ----                                     ----
              STO-SS =       15743.3802                STO-SS =           0.0000     STORAGE                          
                 DRN =       12305.5375                   DRN =          23.4320     DRN_SYS1                         
                 RIV =      528652.2599                   RIV =        1519.1159     RIV_SYS1                         
                 RIV =       34030.7415                   RIV =          74.7089     RIV_SYS2                         
                 RCH =        3530.8954                   RCH =           1.9856     RCH_MSW                          

           TOTAL OUT =      594262.8145             TOTAL OUT =        1619.2424

            IN - OUT =          -0.1204              IN - OUT =      -8.7678E-04

 PERCENT DISCREPANCY =          -0.00     PERCENT DISCREPANCY =          -0.00




         TIME SUMMARY AT END OF TIME STEP    1 IN STRESS PERIOD  185
                    SECONDS     MINUTES      HOURS       DAYS        YEARS
                    -----------------------------------------------------------
   TIME STEP LENGTH  86400.      1440.0      24.000      1.0000     2.73785E-03
 STRESS PERIOD TIME  86400.      1440.0      24.000      1.0000     2.73785E-03
         TOTAL TIME 1.59840E+07 2.66400E+05  4440.0      185.00     0.50650    


end timestep


start timestep kper="186" kstp="1" mode="normal"

 #Stressperiod Save Options

 BEGIN READING OUTPUT CONTROL FOR STRESS PERIOD 186
      ALL TIME STEPS WILL BE SAVED
      ALL TIME STEPS WILL BE SAVED

 END READING OUTPUT CONTROL FOR STRESS PERIOD 186


 PROCESSING STORAGE PERIOD DATA
 END PROCESSING STORAGE PERIOD DATA


 STRESS PERIOD 186 IS TRANSIENT


 REUSING DRNS FROM LAST STRESS PERIOD

 REUSING RIVS FROM LAST STRESS PERIOD

 REUSING RIVS FROM LAST STRESS PERIOD

 REUSING RCHS FROM LAST STRESS PERIOD
 UBDSV06 SAVING              DRN IN MODEL GWF_1            PACKAGE GWF_1           CONNECTED TO MODEL GWF_1            PACKAGE DRN_SYS1         ON UNIT   1018 AT TIME STEP      1, STRESS PERIOD    186
 UBDSV06 SAVING              RIV IN MODEL GWF_1            PACKAGE GWF_1           CONNECTED TO MODEL GWF_1            PACKAGE RIV_SYS1         ON UNIT   1018 AT TIME STEP      1, STRESS PERIOD    186
 UBDSV06 SAVING              RIV IN MODEL GWF_1            PACKAGE GWF_1           CONNECTED TO MODEL GWF_1            PACKAGE RIV_SYS2         ON UNIT   1018 AT TIME STEP      1, STRESS PERIOD    186
 UBDSV06 SAVING              RCH IN MODEL GWF_1            PACKAGE GWF_1           CONNECTED TO MODEL GWF_1            PACKAGE RCH_MSW          ON UNIT   1018 AT TIME STEP      1, STRESS PERIOD    186

 HEAD WILL BE SAVED ON UNIT 1017 AT END OF TIME STEP    1, STRESS PERIOD  186


  VOLUME BUDGET FOR ENTIRE MODEL AT END OF TIME STEP    1, STRESS PERIOD 186
  ---------------------------------------------------------------------------------------------------

     CUMULATIVE VOLUME      L**3       RATES FOR THIS TIME STEP      L**3/T          PACKAGE NAME    
     ------------------                 ------------------------                     ----------------

           IN:                                      IN:
           ---                                      ---
              STO-SS =      209137.3914                STO-SS =         168.3831     STORAGE                          
                 DRN =           0.0000                   DRN =           0.0000     DRN_SYS1                         
                 RIV =      129651.4633                   RIV =        1098.0971     RIV_SYS1                         
                 RIV =           0.0000                   RIV =           0.0000     RIV_SYS2                         
                 RCH =      257086.4470                   RCH =         346.1273     RCH_MSW                          

            TOTAL IN =      595875.3016              TOTAL IN =        1612.6075

          OUT:                                     OUT:
          ----                                     ----
              STO-SS =       15743.3802                STO-SS =           0.0000     STORAGE                          
                 DRN =       12328.7707                   DRN =          23.2331     DRN_SYS1                         
                 RIV =      530164.7137                   RIV =        1512.4538     RIV_SYS1                         
                 RIV =       34104.8988                   RIV =          74.1573     RIV_SYS2                         
                 RCH =        3533.6595                   RCH =           2.7641     RCH_MSW                          

           TOTAL OUT =      595875.4229             TOTAL OUT =        1612.6084

            IN - OUT =          -0.1213              IN - OUT =      -9.0252E-04

 PERCENT DISCREPANCY =          -0.00     PERCENT DISCREPANCY =          -0.00




         TIME SUMMARY AT END OF TIME STEP    1 IN STRESS PERIOD  186
                    SECONDS     MINUTES      HOURS       DAYS        YEARS
                    -----------------------------------------------------------
   TIME STEP LENGTH  86400.      1440.0      24.000      1.0000     2.73785E-03
 STRESS PERIOD TIME  86400.      1440.0      24.000      1.0000     2.73785E-03
         TOTAL TIME 1.60704E+07 2.67840E+05  4464.0      186.00     0.50924    


end timestep


start timestep kper="187" kstp="1" mode="normal"

 #Stressperiod Save Options

 BEGIN READING OUTPUT CONTROL FOR STRESS PERIOD 187
      ALL TIME STEPS WILL BE SAVED
      ALL TIME STEPS WILL BE SAVED

 END READING OUTPUT CONTROL FOR STRESS PERIOD 187


 PROCESSING STORAGE PERIOD DATA
 END PROCESSING STORAGE PERIOD DATA


 STRESS PERIOD 187 IS TRANSIENT


 REUSING DRNS FROM LAST STRESS PERIOD

 REUSING RIVS FROM LAST STRESS PERIOD

 REUSING RIVS FROM LAST STRESS PERIOD

 REUSING RCHS FROM LAST STRESS PERIOD
 UBDSV06 SAVING              DRN IN MODEL GWF_1            PACKAGE GWF_1           CONNECTED TO MODEL GWF_1            PACKAGE DRN_SYS1         ON UNIT   1018 AT TIME STEP      1, STRESS PERIOD    187
 UBDSV06 SAVING              RIV IN MODEL GWF_1            PACKAGE GWF_1           CONNECTED TO MODEL GWF_1            PACKAGE RIV_SYS1         ON UNIT   1018 AT TIME STEP      1, STRESS PERIOD    187
 UBDSV06 SAVING              RIV IN MODEL GWF_1            PACKAGE GWF_1           CONNECTED TO MODEL GWF_1            PACKAGE RIV_SYS2         ON UNIT   1018 AT TIME STEP      1, STRESS PERIOD    187
 UBDSV06 SAVING              RCH IN MODEL GWF_1            PACKAGE GWF_1           CONNECTED TO MODEL GWF_1            PACKAGE RCH_MSW          ON UNIT   1018 AT TIME STEP      1, STRESS PERIOD    187

 HEAD WILL BE SAVED ON UNIT 1017 AT END OF TIME STEP    1, STRESS PERIOD  187


  VOLUME BUDGET FOR ENTIRE MODEL AT END OF TIME STEP    1, STRESS PERIOD 187
  ---------------------------------------------------------------------------------------------------

     CUMULATIVE VOLUME      L**3       RATES FOR THIS TIME STEP      L**3/T          PACKAGE NAME    
     ------------------                 ------------------------                     ----------------

           IN:                                      IN:
           ---                                      ---
              STO-SS =      209308.5640                STO-SS =         171.1727     STORAGE                          
                 DRN =           0.0000                   DRN =           0.0000     DRN_SYS1                         
                 RIV =      130754.6442                   RIV =        1103.1809     RIV_SYS1                         
                 RIV =           0.0000                   RIV =           0.0000     RIV_SYS2                         
                 RCH =      257418.0652                   RCH =         331.6182     RCH_MSW                          

            TOTAL IN =      597481.2734              TOTAL IN =        1605.9718

          OUT:                                     OUT:
          ----                                     ----
              STO-SS =       15743.3802                STO-SS =           0.0000     STORAGE                          
                 DRN =       12351.8013                   DRN =          23.0306     DRN_SYS1                         
                 RIV =      531670.5574                   RIV =        1505.8437     RIV_SYS1                         
                 RIV =       34178.4994                   RIV =          73.6006     RIV_SYS2                         
                 RCH =        3537.1572                   RCH =           3.4977     RCH_MSW                          

           TOTAL OUT =      597481.3955             TOTAL OUT =        1605.9726

            IN - OUT =          -0.1221              IN - OUT =      -8.1511E-04

 PERCENT DISCREPANCY =          -0.00     PERCENT DISCREPANCY =          -0.00




         TIME SUMMARY AT END OF TIME STEP    1 IN STRESS PERIOD  187
                    SECONDS     MINUTES      HOURS       DAYS        YEARS
                    -----------------------------------------------------------
   TIME STEP LENGTH  86400.      1440.0      24.000      1.0000     2.73785E-03
 STRESS PERIOD TIME  86400.      1440.0      24.000      1.0000     2.73785E-03
         TOTAL TIME 1.61568E+07 2.69280E+05  4488.0      187.00     0.51198    


end timestep


start timestep kper="188" kstp="1" mode="normal"

 #Stressperiod Save Options

 BEGIN READING OUTPUT CONTROL FOR STRESS PERIOD 188
      ALL TIME STEPS WILL BE SAVED
      ALL TIME STEPS WILL BE SAVED

 END READING OUTPUT CONTROL FOR STRESS PERIOD 188


 PROCESSING STORAGE PERIOD DATA
 END PROCESSING STORAGE PERIOD DATA


 STRESS PERIOD 188 IS TRANSIENT


 REUSING DRNS FROM LAST STRESS PERIOD

 REUSING RIVS FROM LAST STRESS PERIOD

 REUSING RIVS FROM LAST STRESS PERIOD

 REUSING RCHS FROM LAST STRESS PERIOD
 UBDSV06 SAVING              DRN IN MODEL GWF_1            PACKAGE GWF_1           CONNECTED TO MODEL GWF_1            PACKAGE DRN_SYS1         ON UNIT   1018 AT TIME STEP      1, STRESS PERIOD    188
 UBDSV06 SAVING              RIV IN MODEL GWF_1            PACKAGE GWF_1           CONNECTED TO MODEL GWF_1            PACKAGE RIV_SYS1         ON UNIT   1018 AT TIME STEP      1, STRESS PERIOD    188
 UBDSV06 SAVING              RIV IN MODEL GWF_1            PACKAGE GWF_1           CONNECTED TO MODEL GWF_1            PACKAGE RIV_SYS2         ON UNIT   1018 AT TIME STEP      1, STRESS PERIOD    188
 UBDSV06 SAVING              RCH IN MODEL GWF_1            PACKAGE GWF_1           CONNECTED TO MODEL GWF_1            PACKAGE RCH_MSW          ON UNIT   1018 AT TIME STEP      1, STRESS PERIOD    188

 HEAD WILL BE SAVED ON UNIT 1017 AT END OF TIME STEP    1, STRESS PERIOD  188


  VOLUME BUDGET FOR ENTIRE MODEL AT END OF TIME STEP    1, STRESS PERIOD 188
  ---------------------------------------------------------------------------------------------------

     CUMULATIVE VOLUME      L**3       RATES FOR THIS TIME STEP      L**3/T          PACKAGE NAME    
     ------------------                 ------------------------                     ----------------

           IN:                                      IN:
           ---                                      ---
              STO-SS =      209427.8429                STO-SS =         119.2789     STORAGE                          
                 DRN =           0.0000                   DRN =           0.0000     DRN_SYS1                         
                 RIV =      131859.9593                   RIV =        1105.3152     RIV_SYS1                         
                 RIV =           0.0000                   RIV =           0.0000     RIV_SYS2                         
                 RCH =      257795.8875                   RCH =         377.8223     RCH_MSW                          

            TOTAL IN =      599083.6897              TOTAL IN =        1602.4163

          OUT:                                     OUT:
          ----                                     ----
              STO-SS =       15743.3802                STO-SS =           0.0000     STORAGE                          
                 DRN =       12374.6741                   DRN =          22.8728     DRN_SYS1                         
                 RIV =      533172.5639                   RIV =        1502.0065     RIV_SYS1                         
                 RIV =       34251.7222                   RIV =          73.2228     RIV_SYS2                         
                 RCH =        3541.4740                   RCH =           4.3168     RCH_MSW                          

           TOTAL OUT =      599083.8144             TOTAL OUT =        1602.4189

            IN - OUT =          -0.1247              IN - OUT =      -2.5594E-03

 PERCENT DISCREPANCY =          -0.00     PERCENT DISCREPANCY =          -0.00




         TIME SUMMARY AT END OF TIME STEP    1 IN STRESS PERIOD  188
                    SECONDS     MINUTES      HOURS       DAYS        YEARS
                    -----------------------------------------------------------
   TIME STEP LENGTH  86400.      1440.0      24.000      1.0000     2.73785E-03
 STRESS PERIOD TIME  86400.      1440.0      24.000      1.0000     2.73785E-03
         TOTAL TIME 1.62432E+07 2.70720E+05  4512.0      188.00     0.51472    


end timestep


start timestep kper="189" kstp="1" mode="normal"

 #Stressperiod Save Options

 BEGIN READING OUTPUT CONTROL FOR STRESS PERIOD 189
      ALL TIME STEPS WILL BE SAVED
      ALL TIME STEPS WILL BE SAVED

 END READING OUTPUT CONTROL FOR STRESS PERIOD 189


 PROCESSING STORAGE PERIOD DATA
 END PROCESSING STORAGE PERIOD DATA


 STRESS PERIOD 189 IS TRANSIENT


 REUSING DRNS FROM LAST STRESS PERIOD

 REUSING RIVS FROM LAST STRESS PERIOD

 REUSING RIVS FROM LAST STRESS PERIOD

 REUSING RCHS FROM LAST STRESS PERIOD
 UBDSV06 SAVING              DRN IN MODEL GWF_1            PACKAGE GWF_1           CONNECTED TO MODEL GWF_1            PACKAGE DRN_SYS1         ON UNIT   1018 AT TIME STEP      1, STRESS PERIOD    189
 UBDSV06 SAVING              RIV IN MODEL GWF_1            PACKAGE GWF_1           CONNECTED TO MODEL GWF_1            PACKAGE RIV_SYS1         ON UNIT   1018 AT TIME STEP      1, STRESS PERIOD    189
 UBDSV06 SAVING              RIV IN MODEL GWF_1            PACKAGE GWF_1           CONNECTED TO MODEL GWF_1            PACKAGE RIV_SYS2         ON UNIT   1018 AT TIME STEP      1, STRESS PERIOD    189
 UBDSV06 SAVING              RCH IN MODEL GWF_1            PACKAGE GWF_1           CONNECTED TO MODEL GWF_1            PACKAGE RCH_MSW          ON UNIT   1018 AT TIME STEP      1, STRESS PERIOD    189

 HEAD WILL BE SAVED ON UNIT 1017 AT END OF TIME STEP    1, STRESS PERIOD  189


  VOLUME BUDGET FOR ENTIRE MODEL AT END OF TIME STEP    1, STRESS PERIOD 189
  ---------------------------------------------------------------------------------------------------

     CUMULATIVE VOLUME      L**3       RATES FOR THIS TIME STEP      L**3/T          PACKAGE NAME    
     ------------------                 ------------------------                     ----------------

           IN:                                      IN:
           ---                                      ---
              STO-SS =      209551.8735                STO-SS =         124.0306     STORAGE                          
                 DRN =           0.0000                   DRN =           0.0000     DRN_SYS1                         
                 RIV =      132968.0536                   RIV =        1108.0942     RIV_SYS1                         
                 RIV =           0.0000                   RIV =           0.0000     RIV_SYS2                         
                 RCH =      258162.3574                   RCH =         366.4699     RCH_MSW                          

            TOTAL IN =      600682.2845              TOTAL IN =        1598.5948

          OUT:                                     OUT:
          ----                                     ----
              STO-SS =       15743.3802                STO-SS =           0.0000     STORAGE                          
                 DRN =       12397.3860                   DRN =          22.7119     DRN_SYS1                         
                 RIV =      534670.1817                   RIV =        1497.6178     RIV_SYS1                         
                 RIV =       34324.5562                   RIV =          72.8340     RIV_SYS2                         
                 RCH =        3546.9068                   RCH =           5.4328     RCH_MSW                          

           TOTAL OUT =      600682.4109             TOTAL OUT =        1598.5965

            IN - OUT =          -0.1264              IN - OUT =      -1.7104E-03

 PERCENT DISCREPANCY =          -0.00     PERCENT DISCREPANCY =          -0.00




         TIME SUMMARY AT END OF TIME STEP    1 IN STRESS PERIOD  189
                    SECONDS     MINUTES      HOURS       DAYS        YEARS
                    -----------------------------------------------------------
   TIME STEP LENGTH  86400.      1440.0      24.000      1.0000     2.73785E-03
 STRESS PERIOD TIME  86400.      1440.0      24.000      1.0000     2.73785E-03
         TOTAL TIME 1.63296E+07 2.72160E+05  4536.0      189.00     0.51745    


end timestep


start timestep kper="190" kstp="1" mode="normal"

 #Stressperiod Save Options

 BEGIN READING OUTPUT CONTROL FOR STRESS PERIOD 190
      ALL TIME STEPS WILL BE SAVED
      ALL TIME STEPS WILL BE SAVED

 END READING OUTPUT CONTROL FOR STRESS PERIOD 190


 PROCESSING STORAGE PERIOD DATA
 END PROCESSING STORAGE PERIOD DATA


 STRESS PERIOD 190 IS TRANSIENT


 REUSING DRNS FROM LAST STRESS PERIOD

 REUSING RIVS FROM LAST STRESS PERIOD

 REUSING RIVS FROM LAST STRESS PERIOD

 REUSING RCHS FROM LAST STRESS PERIOD
 UBDSV06 SAVING              DRN IN MODEL GWF_1            PACKAGE GWF_1           CONNECTED TO MODEL GWF_1            PACKAGE DRN_SYS1         ON UNIT   1018 AT TIME STEP      1, STRESS PERIOD    190
 UBDSV06 SAVING              RIV IN MODEL GWF_1            PACKAGE GWF_1           CONNECTED TO MODEL GWF_1            PACKAGE RIV_SYS1         ON UNIT   1018 AT TIME STEP      1, STRESS PERIOD    190
 UBDSV06 SAVING              RIV IN MODEL GWF_1            PACKAGE GWF_1           CONNECTED TO MODEL GWF_1            PACKAGE RIV_SYS2         ON UNIT   1018 AT TIME STEP      1, STRESS PERIOD    190
 UBDSV06 SAVING              RCH IN MODEL GWF_1            PACKAGE GWF_1           CONNECTED TO MODEL GWF_1            PACKAGE RCH_MSW          ON UNIT   1018 AT TIME STEP      1, STRESS PERIOD    190

 HEAD WILL BE SAVED ON UNIT 1017 AT END OF TIME STEP    1, STRESS PERIOD  190


  VOLUME BUDGET FOR ENTIRE MODEL AT END OF TIME STEP    1, STRESS PERIOD 190
  ---------------------------------------------------------------------------------------------------

     CUMULATIVE VOLUME      L**3       RATES FOR THIS TIME STEP      L**3/T          PACKAGE NAME    
     ------------------                 ------------------------                     ----------------

           IN:                                      IN:
           ---                                      ---
              STO-SS =      209684.8165                STO-SS =         132.9430     STORAGE                          
                 DRN =           0.0000                   DRN =           0.0000     DRN_SYS1                         
                 RIV =      134079.1915                   RIV =        1111.1380     RIV_SYS1                         
                 RIV =           0.0000                   RIV =           0.0000     RIV_SYS2                         
                 RCH =      258513.0334                   RCH =         350.6761     RCH_MSW                          

            TOTAL IN =      602277.0415              TOTAL IN =        1594.7570

          OUT:                                     OUT:
          ----                                     ----
              STO-SS =       15743.3802                STO-SS =           0.0000     STORAGE                          
                 DRN =       12419.9292                   DRN =          22.5432     DRN_SYS1                         
                 RIV =      536163.3050                   RIV =        1493.1233     RIV_SYS1                         
                 RIV =       34396.9626                   RIV =          72.4063     RIV_SYS2                         
                 RCH =        3553.5924                   RCH =           6.6856     RCH_MSW                          

           TOTAL OUT =      602277.1693             TOTAL OUT =        1594.7585

            IN - OUT =          -0.1279              IN - OUT =      -1.4993E-03

 PERCENT DISCREPANCY =          -0.00     PERCENT DISCREPANCY =          -0.00




         TIME SUMMARY AT END OF TIME STEP    1 IN STRESS PERIOD  190
                    SECONDS     MINUTES      HOURS       DAYS        YEARS
                    -----------------------------------------------------------
   TIME STEP LENGTH  86400.      1440.0      24.000      1.0000     2.73785E-03
 STRESS PERIOD TIME  86400.      1440.0      24.000      1.0000     2.73785E-03
         TOTAL TIME 1.64160E+07 2.73600E+05  4560.0      190.00     0.52019    


end timestep


start timestep kper="191" kstp="1" mode="normal"

 #Stressperiod Save Options

 BEGIN READING OUTPUT CONTROL FOR STRESS PERIOD 191
      ALL TIME STEPS WILL BE SAVED
      ALL TIME STEPS WILL BE SAVED

 END READING OUTPUT CONTROL FOR STRESS PERIOD 191


 PROCESSING STORAGE PERIOD DATA
 END PROCESSING STORAGE PERIOD DATA


 STRESS PERIOD 191 IS TRANSIENT


 REUSING DRNS FROM LAST STRESS PERIOD

 REUSING RIVS FROM LAST STRESS PERIOD

 REUSING RIVS FROM LAST STRESS PERIOD

 REUSING RCHS FROM LAST STRESS PERIOD
 UBDSV06 SAVING              DRN IN MODEL GWF_1            PACKAGE GWF_1           CONNECTED TO MODEL GWF_1            PACKAGE DRN_SYS1         ON UNIT   1018 AT TIME STEP      1, STRESS PERIOD    191
 UBDSV06 SAVING              RIV IN MODEL GWF_1            PACKAGE GWF_1           CONNECTED TO MODEL GWF_1            PACKAGE RIV_SYS1         ON UNIT   1018 AT TIME STEP      1, STRESS PERIOD    191
 UBDSV06 SAVING              RIV IN MODEL GWF_1            PACKAGE GWF_1           CONNECTED TO MODEL GWF_1            PACKAGE RIV_SYS2         ON UNIT   1018 AT TIME STEP      1, STRESS PERIOD    191
 UBDSV06 SAVING              RCH IN MODEL GWF_1            PACKAGE GWF_1           CONNECTED TO MODEL GWF_1            PACKAGE RCH_MSW          ON UNIT   1018 AT TIME STEP      1, STRESS PERIOD    191

 HEAD WILL BE SAVED ON UNIT 1017 AT END OF TIME STEP    1, STRESS PERIOD  191


  VOLUME BUDGET FOR ENTIRE MODEL AT END OF TIME STEP    1, STRESS PERIOD 191
  ---------------------------------------------------------------------------------------------------

     CUMULATIVE VOLUME      L**3       RATES FOR THIS TIME STEP      L**3/T          PACKAGE NAME    
     ------------------                 ------------------------                     ----------------

           IN:                                      IN:
           ---                                      ---
              STO-SS =      209879.3905                STO-SS =         194.5740     STORAGE                          
                 DRN =           0.0000                   DRN =           0.0000     DRN_SYS1                         
                 RIV =      135196.8064                   RIV =        1117.6149     RIV_SYS1                         
                 RIV =           0.0000                   RIV =           0.0000     RIV_SYS2                         
                 RCH =      258789.1024                   RCH =         276.0690     RCH_MSW                          

            TOTAL IN =      603865.2993              TOTAL IN =        1588.2579

          OUT:                                     OUT:
          ----                                     ----
              STO-SS =       15743.3802                STO-SS =           0.0000     STORAGE                          
                 DRN =       12442.2455                   DRN =          22.3163     DRN_SYS1                         
                 RIV =      537648.8130                   RIV =        1485.5080     RIV_SYS1                         
                 RIV =       34468.7551                   RIV =          71.7926     RIV_SYS2                         
                 RCH =        3562.2348                   RCH =           8.6424     RCH_MSW                          

           TOTAL OUT =      603865.4286             TOTAL OUT =        1588.2592

            IN - OUT =          -0.1292              IN - OUT =      -1.3476E-03

 PERCENT DISCREPANCY =          -0.00     PERCENT DISCREPANCY =          -0.00




         TIME SUMMARY AT END OF TIME STEP    1 IN STRESS PERIOD  191
                    SECONDS     MINUTES      HOURS       DAYS        YEARS
                    -----------------------------------------------------------
   TIME STEP LENGTH  86400.      1440.0      24.000      1.0000     2.73785E-03
 STRESS PERIOD TIME  86400.      1440.0      24.000      1.0000     2.73785E-03
         TOTAL TIME 1.65024E+07 2.75040E+05  4584.0      191.00     0.52293    


end timestep


start timestep kper="192" kstp="1" mode="normal"

 #Stressperiod Save Options

 BEGIN READING OUTPUT CONTROL FOR STRESS PERIOD 192
      ALL TIME STEPS WILL BE SAVED
      ALL TIME STEPS WILL BE SAVED

 END READING OUTPUT CONTROL FOR STRESS PERIOD 192


 PROCESSING STORAGE PERIOD DATA
 END PROCESSING STORAGE PERIOD DATA


 STRESS PERIOD 192 IS TRANSIENT


 REUSING DRNS FROM LAST STRESS PERIOD

 REUSING RIVS FROM LAST STRESS PERIOD

 REUSING RIVS FROM LAST STRESS PERIOD

 REUSING RCHS FROM LAST STRESS PERIOD
 UBDSV06 SAVING              DRN IN MODEL GWF_1            PACKAGE GWF_1           CONNECTED TO MODEL GWF_1            PACKAGE DRN_SYS1         ON UNIT   1018 AT TIME STEP      1, STRESS PERIOD    192
 UBDSV06 SAVING              RIV IN MODEL GWF_1            PACKAGE GWF_1           CONNECTED TO MODEL GWF_1            PACKAGE RIV_SYS1         ON UNIT   1018 AT TIME STEP      1, STRESS PERIOD    192
 UBDSV06 SAVING              RIV IN MODEL GWF_1            PACKAGE GWF_1           CONNECTED TO MODEL GWF_1            PACKAGE RIV_SYS2         ON UNIT   1018 AT TIME STEP      1, STRESS PERIOD    192
 UBDSV06 SAVING              RCH IN MODEL GWF_1            PACKAGE GWF_1           CONNECTED TO MODEL GWF_1            PACKAGE RCH_MSW          ON UNIT   1018 AT TIME STEP      1, STRESS PERIOD    192

 HEAD WILL BE SAVED ON UNIT 1017 AT END OF TIME STEP    1, STRESS PERIOD  192


  VOLUME BUDGET FOR ENTIRE MODEL AT END OF TIME STEP    1, STRESS PERIOD 192
  ---------------------------------------------------------------------------------------------------

     CUMULATIVE VOLUME      L**3       RATES FOR THIS TIME STEP      L**3/T          PACKAGE NAME    
     ------------------                 ------------------------                     ----------------

           IN:                                      IN:
           ---                                      ---
              STO-SS =      210072.4803                STO-SS =         193.0898     STORAGE                          
                 DRN =           0.0000                   DRN =           0.0000     DRN_SYS1                         
                 RIV =      136320.0958                   RIV =        1123.2894     RIV_SYS1                         
                 RIV =           0.0000                   RIV =           0.0000     RIV_SYS2                         
                 RCH =      259054.8187                   RCH =         265.7163     RCH_MSW                          

            TOTAL IN =      605447.3948              TOTAL IN =        1582.0954

          OUT:                                     OUT:
          ----                                     ----
              STO-SS =       15743.3802                STO-SS =           0.0000     STORAGE                          
                 DRN =       12464.3314                   DRN =          22.0859     DRN_SYS1                         
                 RIV =      539127.2192                   RIV =        1478.4062     RIV_SYS1                         
                 RIV =       34539.9332                   RIV =          71.1781     RIV_SYS2                         
                 RCH =        3572.6615                   RCH =          10.4267     RCH_MSW                          

           TOTAL OUT =      605447.5255             TOTAL OUT =        1582.0969

            IN - OUT =          -0.1307              IN - OUT =      -1.4863E-03

 PERCENT DISCREPANCY =          -0.00     PERCENT DISCREPANCY =          -0.00




         TIME SUMMARY AT END OF TIME STEP    1 IN STRESS PERIOD  192
                    SECONDS     MINUTES      HOURS       DAYS        YEARS
                    -----------------------------------------------------------
   TIME STEP LENGTH  86400.      1440.0      24.000      1.0000     2.73785E-03
 STRESS PERIOD TIME  86400.      1440.0      24.000      1.0000     2.73785E-03
         TOTAL TIME 1.65888E+07 2.76480E+05  4608.0      192.00     0.52567    


end timestep


start timestep kper="193" kstp="1" mode="normal"

 #Stressperiod Save Options

 BEGIN READING OUTPUT CONTROL FOR STRESS PERIOD 193
      ALL TIME STEPS WILL BE SAVED
      ALL TIME STEPS WILL BE SAVED

 END READING OUTPUT CONTROL FOR STRESS PERIOD 193


 PROCESSING STORAGE PERIOD DATA
 END PROCESSING STORAGE PERIOD DATA


 STRESS PERIOD 193 IS TRANSIENT


 REUSING DRNS FROM LAST STRESS PERIOD

 REUSING RIVS FROM LAST STRESS PERIOD

 REUSING RIVS FROM LAST STRESS PERIOD

 REUSING RCHS FROM LAST STRESS PERIOD
 UBDSV06 SAVING              DRN IN MODEL GWF_1            PACKAGE GWF_1           CONNECTED TO MODEL GWF_1            PACKAGE DRN_SYS1         ON UNIT   1018 AT TIME STEP      1, STRESS PERIOD    193
 UBDSV06 SAVING              RIV IN MODEL GWF_1            PACKAGE GWF_1           CONNECTED TO MODEL GWF_1            PACKAGE RIV_SYS1         ON UNIT   1018 AT TIME STEP      1, STRESS PERIOD    193
 UBDSV06 SAVING              RIV IN MODEL GWF_1            PACKAGE GWF_1           CONNECTED TO MODEL GWF_1            PACKAGE RIV_SYS2         ON UNIT   1018 AT TIME STEP      1, STRESS PERIOD    193
 UBDSV06 SAVING              RCH IN MODEL GWF_1            PACKAGE GWF_1           CONNECTED TO MODEL GWF_1            PACKAGE RCH_MSW          ON UNIT   1018 AT TIME STEP      1, STRESS PERIOD    193

 HEAD WILL BE SAVED ON UNIT 1017 AT END OF TIME STEP    1, STRESS PERIOD  193


  VOLUME BUDGET FOR ENTIRE MODEL AT END OF TIME STEP    1, STRESS PERIOD 193
  ---------------------------------------------------------------------------------------------------

     CUMULATIVE VOLUME      L**3       RATES FOR THIS TIME STEP      L**3/T          PACKAGE NAME    
     ------------------                 ------------------------                     ----------------

           IN:                                      IN:
           ---                                      ---
              STO-SS =      210264.4903                STO-SS =         192.0100     STORAGE                          
                 DRN =           0.0000                   DRN =           0.0000     DRN_SYS1                         
                 RIV =      137448.6295                   RIV =        1128.5337     RIV_SYS1                         
                 RIV =           0.0000                   RIV =           0.0000     RIV_SYS2                         
                 RCH =      259310.5198                   RCH =         255.7011     RCH_MSW                          

            TOTAL IN =      607023.6397              TOTAL IN =        1576.2449

          OUT:                                     OUT:
          ----                                     ----
              STO-SS =       15743.3802                STO-SS =           0.0000     STORAGE                          
                 DRN =       12486.1861                   DRN =          21.8547     DRN_SYS1                         
                 RIV =      540598.8324                   RIV =        1471.6133     RIV_SYS1                         
                 RIV =       34610.4991                   RIV =          70.5659     RIV_SYS2                         
                 RCH =        3584.8731                   RCH =          12.2116     RCH_MSW                          

           TOTAL OUT =      607023.7709             TOTAL OUT =        1576.2454

            IN - OUT =          -0.1313              IN - OUT =      -5.2688E-04

 PERCENT DISCREPANCY =          -0.00     PERCENT DISCREPANCY =          -0.00




         TIME SUMMARY AT END OF TIME STEP    1 IN STRESS PERIOD  193
                    SECONDS     MINUTES      HOURS       DAYS        YEARS
                    -----------------------------------------------------------
   TIME STEP LENGTH  86400.      1440.0      24.000      1.0000     2.73785E-03
 STRESS PERIOD TIME  86400.      1440.0      24.000      1.0000     2.73785E-03
         TOTAL TIME 1.66752E+07 2.77920E+05  4632.0      193.00     0.52841    


end timestep


start timestep kper="194" kstp="1" mode="normal"

 #Stressperiod Save Options

 BEGIN READING OUTPUT CONTROL FOR STRESS PERIOD 194
      ALL TIME STEPS WILL BE SAVED
      ALL TIME STEPS WILL BE SAVED

 END READING OUTPUT CONTROL FOR STRESS PERIOD 194


 PROCESSING STORAGE PERIOD DATA
 END PROCESSING STORAGE PERIOD DATA


 STRESS PERIOD 194 IS TRANSIENT


 REUSING DRNS FROM LAST STRESS PERIOD

 REUSING RIVS FROM LAST STRESS PERIOD

 REUSING RIVS FROM LAST STRESS PERIOD

 REUSING RCHS FROM LAST STRESS PERIOD
 UBDSV06 SAVING              DRN IN MODEL GWF_1            PACKAGE GWF_1           CONNECTED TO MODEL GWF_1            PACKAGE DRN_SYS1         ON UNIT   1018 AT TIME STEP      1, STRESS PERIOD    194
 UBDSV06 SAVING              RIV IN MODEL GWF_1            PACKAGE GWF_1           CONNECTED TO MODEL GWF_1            PACKAGE RIV_SYS1         ON UNIT   1018 AT TIME STEP      1, STRESS PERIOD    194
 UBDSV06 SAVING              RIV IN MODEL GWF_1            PACKAGE GWF_1           CONNECTED TO MODEL GWF_1            PACKAGE RIV_SYS2         ON UNIT   1018 AT TIME STEP      1, STRESS PERIOD    194
 UBDSV06 SAVING              RCH IN MODEL GWF_1            PACKAGE GWF_1           CONNECTED TO MODEL GWF_1            PACKAGE RCH_MSW          ON UNIT   1018 AT TIME STEP      1, STRESS PERIOD    194

 HEAD WILL BE SAVED ON UNIT 1017 AT END OF TIME STEP    1, STRESS PERIOD  194


  VOLUME BUDGET FOR ENTIRE MODEL AT END OF TIME STEP    1, STRESS PERIOD 194
  ---------------------------------------------------------------------------------------------------

     CUMULATIVE VOLUME      L**3       RATES FOR THIS TIME STEP      L**3/T          PACKAGE NAME    
     ------------------                 ------------------------                     ----------------

           IN:                                      IN:
           ---                                      ---
              STO-SS =      210453.2177                STO-SS =         188.7274     STORAGE                          
                 DRN =           0.0000                   DRN =           0.0000     DRN_SYS1                         
                 RIV =      138582.1275                   RIV =        1133.4979     RIV_SYS1                         
                 RIV =           0.0000                   RIV =           0.0000     RIV_SYS2                         
                 RCH =      259558.9818                   RCH =         248.4619     RCH_MSW                          

            TOTAL IN =      608594.3269              TOTAL IN =        1570.6873

          OUT:                                     OUT:
          ----                                     ----
              STO-SS =       15743.3802                STO-SS =           0.0000     STORAGE                          
                 DRN =       12507.8200                   DRN =          21.6340     DRN_SYS1                         
                 RIV =      542063.8716                   RIV =        1465.0392     RIV_SYS1                         
                 RIV =       34680.4569                   RIV =          69.9578     RIV_SYS2                         
                 RCH =        3598.9301                   RCH =          14.0570     RCH_MSW                          

           TOTAL OUT =      608594.4589             TOTAL OUT =        1570.6880

            IN - OUT =          -0.1319              IN - OUT =      -6.9313E-04

 PERCENT DISCREPANCY =          -0.00     PERCENT DISCREPANCY =          -0.00




         TIME SUMMARY AT END OF TIME STEP    1 IN STRESS PERIOD  194
                    SECONDS     MINUTES      HOURS       DAYS        YEARS
                    -----------------------------------------------------------
   TIME STEP LENGTH  86400.      1440.0      24.000      1.0000     2.73785E-03
 STRESS PERIOD TIME  86400.      1440.0      24.000      1.0000     2.73785E-03
         TOTAL TIME 1.67616E+07 2.79360E+05  4656.0      194.00     0.53114    


end timestep


start timestep kper="195" kstp="1" mode="normal"

 #Stressperiod Save Options

 BEGIN READING OUTPUT CONTROL FOR STRESS PERIOD 195
      ALL TIME STEPS WILL BE SAVED
      ALL TIME STEPS WILL BE SAVED

 END READING OUTPUT CONTROL FOR STRESS PERIOD 195


 PROCESSING STORAGE PERIOD DATA
 END PROCESSING STORAGE PERIOD DATA


 STRESS PERIOD 195 IS TRANSIENT


 REUSING DRNS FROM LAST STRESS PERIOD

 REUSING RIVS FROM LAST STRESS PERIOD

 REUSING RIVS FROM LAST STRESS PERIOD

 REUSING RCHS FROM LAST STRESS PERIOD
 UBDSV06 SAVING              DRN IN MODEL GWF_1            PACKAGE GWF_1           CONNECTED TO MODEL GWF_1            PACKAGE DRN_SYS1         ON UNIT   1018 AT TIME STEP      1, STRESS PERIOD    195
 UBDSV06 SAVING              RIV IN MODEL GWF_1            PACKAGE GWF_1           CONNECTED TO MODEL GWF_1            PACKAGE RIV_SYS1         ON UNIT   1018 AT TIME STEP      1, STRESS PERIOD    195
 UBDSV06 SAVING              RIV IN MODEL GWF_1            PACKAGE GWF_1           CONNECTED TO MODEL GWF_1            PACKAGE RIV_SYS2         ON UNIT   1018 AT TIME STEP      1, STRESS PERIOD    195
 UBDSV06 SAVING              RCH IN MODEL GWF_1            PACKAGE GWF_1           CONNECTED TO MODEL GWF_1            PACKAGE RCH_MSW          ON UNIT   1018 AT TIME STEP      1, STRESS PERIOD    195

 HEAD WILL BE SAVED ON UNIT 1017 AT END OF TIME STEP    1, STRESS PERIOD  195


  VOLUME BUDGET FOR ENTIRE MODEL AT END OF TIME STEP    1, STRESS PERIOD 195
  ---------------------------------------------------------------------------------------------------

     CUMULATIVE VOLUME      L**3       RATES FOR THIS TIME STEP      L**3/T          PACKAGE NAME    
     ------------------                 ------------------------                     ----------------

           IN:                                      IN:
           ---                                      ---
              STO-SS =      210577.4745                STO-SS =         124.2568     STORAGE                          
                 DRN =           0.0000                   DRN =           0.0000     DRN_SYS1                         
                 RIV =      139717.8038                   RIV =        1135.6763     RIV_SYS1                         
                 RIV =           0.0000                   RIV =           0.0000     RIV_SYS2                         
                 RCH =      259867.0007                   RCH =         308.0190     RCH_MSW                          

            TOTAL IN =      610162.2790              TOTAL IN =        1567.9521

          OUT:                                     OUT:
          ----                                     ----
              STO-SS =       15743.4114                STO-SS =       3.1171E-02     STORAGE                          
                 DRN =       12529.2967                   DRN =          21.4767     DRN_SYS1                         
                 RIV =      543524.8928                   RIV =        1461.0212     RIV_SYS1                         
                 RIV =       34750.0259                   RIV =          69.5691     RIV_SYS2                         
                 RCH =        3614.7909                   RCH =          15.8607     RCH_MSW                          

           TOTAL OUT =      610162.4177             TOTAL OUT =        1567.9588

            IN - OUT =          -0.1387              IN - OUT =      -6.7090E-03

 PERCENT DISCREPANCY =          -0.00     PERCENT DISCREPANCY =          -0.00




         TIME SUMMARY AT END OF TIME STEP    1 IN STRESS PERIOD  195
                    SECONDS     MINUTES      HOURS       DAYS        YEARS
                    -----------------------------------------------------------
   TIME STEP LENGTH  86400.      1440.0      24.000      1.0000     2.73785E-03
 STRESS PERIOD TIME  86400.      1440.0      24.000      1.0000     2.73785E-03
         TOTAL TIME 1.68480E+07 2.80800E+05  4680.0      195.00     0.53388    


end timestep


start timestep kper="196" kstp="1" mode="normal"

 #Stressperiod Save Options

 BEGIN READING OUTPUT CONTROL FOR STRESS PERIOD 196
      ALL TIME STEPS WILL BE SAVED
      ALL TIME STEPS WILL BE SAVED

 END READING OUTPUT CONTROL FOR STRESS PERIOD 196


 PROCESSING STORAGE PERIOD DATA
 END PROCESSING STORAGE PERIOD DATA


 STRESS PERIOD 196 IS TRANSIENT


 REUSING DRNS FROM LAST STRESS PERIOD

 REUSING RIVS FROM LAST STRESS PERIOD

 REUSING RIVS FROM LAST STRESS PERIOD

 REUSING RCHS FROM LAST STRESS PERIOD
 UBDSV06 SAVING              DRN IN MODEL GWF_1            PACKAGE GWF_1           CONNECTED TO MODEL GWF_1            PACKAGE DRN_SYS1         ON UNIT   1018 AT TIME STEP      1, STRESS PERIOD    196
 UBDSV06 SAVING              RIV IN MODEL GWF_1            PACKAGE GWF_1           CONNECTED TO MODEL GWF_1            PACKAGE RIV_SYS1         ON UNIT   1018 AT TIME STEP      1, STRESS PERIOD    196
 UBDSV06 SAVING              RIV IN MODEL GWF_1            PACKAGE GWF_1           CONNECTED TO MODEL GWF_1            PACKAGE RIV_SYS2         ON UNIT   1018 AT TIME STEP      1, STRESS PERIOD    196
 UBDSV06 SAVING              RCH IN MODEL GWF_1            PACKAGE GWF_1           CONNECTED TO MODEL GWF_1            PACKAGE RCH_MSW          ON UNIT   1018 AT TIME STEP      1, STRESS PERIOD    196

 HEAD WILL BE SAVED ON UNIT 1017 AT END OF TIME STEP    1, STRESS PERIOD  196


  VOLUME BUDGET FOR ENTIRE MODEL AT END OF TIME STEP    1, STRESS PERIOD 196
  ---------------------------------------------------------------------------------------------------

     CUMULATIVE VOLUME      L**3       RATES FOR THIS TIME STEP      L**3/T          PACKAGE NAME    
     ------------------                 ------------------------                     ----------------

           IN:                                      IN:
           ---                                      ---
              STO-SS =      210700.2231                STO-SS =         122.7486     STORAGE                          
                 DRN =           0.0000                   DRN =           0.0000     DRN_SYS1                         
                 RIV =      140856.1070                   RIV =        1138.3032     RIV_SYS1                         
                 RIV =           0.0000                   RIV =           0.0000     RIV_SYS2                         
                 RCH =      260170.9415                   RCH =         303.9408     RCH_MSW                          

            TOTAL IN =      611727.2716              TOTAL IN =        1564.9926

          OUT:                                     OUT:
          ----                                     ----
              STO-SS =       15743.4114                STO-SS =           0.0000     STORAGE                          
                 DRN =       12550.6251                   DRN =          21.3284     DRN_SYS1                         
                 RIV =      544981.7766                   RIV =        1456.8838     RIV_SYS1                         
                 RIV =       34819.2327                   RIV =          69.2068     RIV_SYS2                         
                 RCH =        3632.3665                   RCH =          17.5757     RCH_MSW                          

           TOTAL OUT =      611727.4123             TOTAL OUT =        1564.9946

            IN - OUT =          -0.1407              IN - OUT =      -2.0341E-03

 PERCENT DISCREPANCY =          -0.00     PERCENT DISCREPANCY =          -0.00




         TIME SUMMARY AT END OF TIME STEP    1 IN STRESS PERIOD  196
                    SECONDS     MINUTES      HOURS       DAYS        YEARS
                    -----------------------------------------------------------
   TIME STEP LENGTH  86400.      1440.0      24.000      1.0000     2.73785E-03
 STRESS PERIOD TIME  86400.      1440.0      24.000      1.0000     2.73785E-03
         TOTAL TIME 1.69344E+07 2.82240E+05  4704.0      196.00     0.53662    


end timestep


start timestep kper="197" kstp="1" mode="normal"

 #Stressperiod Save Options

 BEGIN READING OUTPUT CONTROL FOR STRESS PERIOD 197
      ALL TIME STEPS WILL BE SAVED
      ALL TIME STEPS WILL BE SAVED

 END READING OUTPUT CONTROL FOR STRESS PERIOD 197


 PROCESSING STORAGE PERIOD DATA
 END PROCESSING STORAGE PERIOD DATA


 STRESS PERIOD 197 IS TRANSIENT


 REUSING DRNS FROM LAST STRESS PERIOD

 REUSING RIVS FROM LAST STRESS PERIOD

 REUSING RIVS FROM LAST STRESS PERIOD

 REUSING RCHS FROM LAST STRESS PERIOD
 UBDSV06 SAVING              DRN IN MODEL GWF_1            PACKAGE GWF_1           CONNECTED TO MODEL GWF_1            PACKAGE DRN_SYS1         ON UNIT   1018 AT TIME STEP      1, STRESS PERIOD    197
 UBDSV06 SAVING              RIV IN MODEL GWF_1            PACKAGE GWF_1           CONNECTED TO MODEL GWF_1            PACKAGE RIV_SYS1         ON UNIT   1018 AT TIME STEP      1, STRESS PERIOD    197
 UBDSV06 SAVING              RIV IN MODEL GWF_1            PACKAGE GWF_1           CONNECTED TO MODEL GWF_1            PACKAGE RIV_SYS2         ON UNIT   1018 AT TIME STEP      1, STRESS PERIOD    197
 UBDSV06 SAVING              RCH IN MODEL GWF_1            PACKAGE GWF_1           CONNECTED TO MODEL GWF_1            PACKAGE RCH_MSW          ON UNIT   1018 AT TIME STEP      1, STRESS PERIOD    197

 HEAD WILL BE SAVED ON UNIT 1017 AT END OF TIME STEP    1, STRESS PERIOD  197


  VOLUME BUDGET FOR ENTIRE MODEL AT END OF TIME STEP    1, STRESS PERIOD 197
  ---------------------------------------------------------------------------------------------------

     CUMULATIVE VOLUME      L**3       RATES FOR THIS TIME STEP      L**3/T          PACKAGE NAME    
     ------------------                 ------------------------                     ----------------

           IN:                                      IN:
           ---                                      ---
              STO-SS =      210820.9574                STO-SS =         120.7343     STORAGE                          
                 DRN =           0.0000                   DRN =           0.0000     DRN_SYS1                         
                 RIV =      141997.1766                   RIV =        1141.0696     RIV_SYS1                         
                 RIV =           0.0000                   RIV =           0.0000     RIV_SYS2                         
                 RCH =      260471.2418                   RCH =         300.3003     RCH_MSW                          

            TOTAL IN =      613289.3758              TOTAL IN =        1562.1042

          OUT:                                     OUT:
          ----                                     ----
              STO-SS =       15743.4114                STO-SS =           0.0000     STORAGE                          
                 DRN =       12571.8088                   DRN =          21.1837     DRN_SYS1                         
                 RIV =      546434.4915                   RIV =        1452.7149     RIV_SYS1                         
                 RIV =       34888.0859                   RIV =          68.8532     RIV_SYS2                         
                 RCH =        3651.7207                   RCH =          19.3542     RCH_MSW                          

           TOTAL OUT =      613289.5183             TOTAL OUT =        1562.1060

            IN - OUT =          -0.1425              IN - OUT =      -1.8195E-03

 PERCENT DISCREPANCY =          -0.00     PERCENT DISCREPANCY =          -0.00




         TIME SUMMARY AT END OF TIME STEP    1 IN STRESS PERIOD  197
                    SECONDS     MINUTES      HOURS       DAYS        YEARS
                    -----------------------------------------------------------
   TIME STEP LENGTH  86400.      1440.0      24.000      1.0000     2.73785E-03
 STRESS PERIOD TIME  86400.      1440.0      24.000      1.0000     2.73785E-03
         TOTAL TIME 1.70208E+07 2.83680E+05  4728.0      197.00     0.53936    


end timestep


start timestep kper="198" kstp="1" mode="normal"

 #Stressperiod Save Options

 BEGIN READING OUTPUT CONTROL FOR STRESS PERIOD 198
      ALL TIME STEPS WILL BE SAVED
      ALL TIME STEPS WILL BE SAVED

 END READING OUTPUT CONTROL FOR STRESS PERIOD 198


 PROCESSING STORAGE PERIOD DATA
 END PROCESSING STORAGE PERIOD DATA


 STRESS PERIOD 198 IS TRANSIENT


 REUSING DRNS FROM LAST STRESS PERIOD

 REUSING RIVS FROM LAST STRESS PERIOD

 REUSING RIVS FROM LAST STRESS PERIOD

 REUSING RCHS FROM LAST STRESS PERIOD
 UBDSV06 SAVING              DRN IN MODEL GWF_1            PACKAGE GWF_1           CONNECTED TO MODEL GWF_1            PACKAGE DRN_SYS1         ON UNIT   1018 AT TIME STEP      1, STRESS PERIOD    198
 UBDSV06 SAVING              RIV IN MODEL GWF_1            PACKAGE GWF_1           CONNECTED TO MODEL GWF_1            PACKAGE RIV_SYS1         ON UNIT   1018 AT TIME STEP      1, STRESS PERIOD    198
 UBDSV06 SAVING              RIV IN MODEL GWF_1            PACKAGE GWF_1           CONNECTED TO MODEL GWF_1            PACKAGE RIV_SYS2         ON UNIT   1018 AT TIME STEP      1, STRESS PERIOD    198
 UBDSV06 SAVING              RCH IN MODEL GWF_1            PACKAGE GWF_1           CONNECTED TO MODEL GWF_1            PACKAGE RCH_MSW          ON UNIT   1018 AT TIME STEP      1, STRESS PERIOD    198

 HEAD WILL BE SAVED ON UNIT 1017 AT END OF TIME STEP    1, STRESS PERIOD  198


  VOLUME BUDGET FOR ENTIRE MODEL AT END OF TIME STEP    1, STRESS PERIOD 198
  ---------------------------------------------------------------------------------------------------

     CUMULATIVE VOLUME      L**3       RATES FOR THIS TIME STEP      L**3/T          PACKAGE NAME    
     ------------------                 ------------------------                     ----------------

           IN:                                      IN:
           ---                                      ---
              STO-SS =      211019.9947                STO-SS =         199.0373     STORAGE                          
                 DRN =           0.0000                   DRN =           0.0000     DRN_SYS1                         
                 RIV =      143143.7074                   RIV =        1146.5307     RIV_SYS1                         
                 RIV =           0.0000                   RIV =           0.0000     RIV_SYS2                         
                 RCH =      260682.9192                   RCH =         211.6774     RCH_MSW                          

            TOTAL IN =      614846.6212              TOTAL IN =        1557.2454

          OUT:                                     OUT:
          ----                                     ----
              STO-SS =       15743.4114                STO-SS =           0.0000     STORAGE                          
                 DRN =       12592.7701                   DRN =          20.9612     DRN_SYS1                         
                 RIV =      547880.4495                   RIV =        1445.9580     RIV_SYS1                         
                 RIV =       34956.3030                   RIV =          68.2170     RIV_SYS2                         
                 RCH =        3673.8340                   RCH =          22.1132     RCH_MSW                          

           TOTAL OUT =      614846.7679             TOTAL OUT =        1557.2496

            IN - OUT =          -0.1467              IN - OUT =      -4.1433E-03

 PERCENT DISCREPANCY =          -0.00     PERCENT DISCREPANCY =          -0.00




         TIME SUMMARY AT END OF TIME STEP    1 IN STRESS PERIOD  198
                    SECONDS     MINUTES      HOURS       DAYS        YEARS
                    -----------------------------------------------------------
   TIME STEP LENGTH  86400.      1440.0      24.000      1.0000     2.73785E-03
 STRESS PERIOD TIME  86400.      1440.0      24.000      1.0000     2.73785E-03
         TOTAL TIME 1.71072E+07 2.85120E+05  4752.0      198.00     0.54209    


end timestep


start timestep kper="199" kstp="1" mode="normal"

 #Stressperiod Save Options

 BEGIN READING OUTPUT CONTROL FOR STRESS PERIOD 199
      ALL TIME STEPS WILL BE SAVED
      ALL TIME STEPS WILL BE SAVED

 END READING OUTPUT CONTROL FOR STRESS PERIOD 199


 PROCESSING STORAGE PERIOD DATA
 END PROCESSING STORAGE PERIOD DATA


 STRESS PERIOD 199 IS TRANSIENT


 REUSING DRNS FROM LAST STRESS PERIOD

 REUSING RIVS FROM LAST STRESS PERIOD

 REUSING RIVS FROM LAST STRESS PERIOD

 REUSING RCHS FROM LAST STRESS PERIOD
 UBDSV06 SAVING              DRN IN MODEL GWF_1            PACKAGE GWF_1           CONNECTED TO MODEL GWF_1            PACKAGE DRN_SYS1         ON UNIT   1018 AT TIME STEP      1, STRESS PERIOD    199
 UBDSV06 SAVING              RIV IN MODEL GWF_1            PACKAGE GWF_1           CONNECTED TO MODEL GWF_1            PACKAGE RIV_SYS1         ON UNIT   1018 AT TIME STEP      1, STRESS PERIOD    199
 UBDSV06 SAVING              RIV IN MODEL GWF_1            PACKAGE GWF_1           CONNECTED TO MODEL GWF_1            PACKAGE RIV_SYS2         ON UNIT   1018 AT TIME STEP      1, STRESS PERIOD    199
 UBDSV06 SAVING              RCH IN MODEL GWF_1            PACKAGE GWF_1           CONNECTED TO MODEL GWF_1            PACKAGE RCH_MSW          ON UNIT   1018 AT TIME STEP      1, STRESS PERIOD    199

 HEAD WILL BE SAVED ON UNIT 1017 AT END OF TIME STEP    1, STRESS PERIOD  199


  VOLUME BUDGET FOR ENTIRE MODEL AT END OF TIME STEP    1, STRESS PERIOD 199
  ---------------------------------------------------------------------------------------------------

     CUMULATIVE VOLUME      L**3       RATES FOR THIS TIME STEP      L**3/T          PACKAGE NAME    
     ------------------                 ------------------------                     ----------------

           IN:                                      IN:
           ---                                      ---
              STO-SS =      211216.2227                STO-SS =         196.2280     STORAGE                          
                 DRN =           0.0000                   DRN =           0.0000     DRN_SYS1                         
                 RIV =      144295.1573                   RIV =        1151.4499     RIV_SYS1                         
                 RIV =           0.0000                   RIV =           0.0000     RIV_SYS2                         
                 RCH =      260887.3001                   RCH =         204.3809     RCH_MSW                          

            TOTAL IN =      616398.6801              TOTAL IN =        1552.0588

          OUT:                                     OUT:
          ----                                     ----
              STO-SS =       15743.4114                STO-SS =           0.0000     STORAGE                          
                 DRN =       12613.5072                   DRN =          20.7371     DRN_SYS1                         
                 RIV =      549319.9538                   RIV =        1439.5043     RIV_SYS1                         
                 RIV =       35023.8877                   RIV =          67.5848     RIV_SYS2                         
                 RCH =        3698.0687                   RCH =          24.2347     RCH_MSW                          

           TOTAL OUT =      616398.8287             TOTAL OUT =        1552.0609

            IN - OUT =          -0.1487              IN - OUT =      -2.0235E-03

 PERCENT DISCREPANCY =          -0.00     PERCENT DISCREPANCY =          -0.00




         TIME SUMMARY AT END OF TIME STEP    1 IN STRESS PERIOD  199
                    SECONDS     MINUTES      HOURS       DAYS        YEARS
                    -----------------------------------------------------------
   TIME STEP LENGTH  86400.      1440.0      24.000      1.0000     2.73785E-03
 STRESS PERIOD TIME  86400.      1440.0      24.000      1.0000     2.73785E-03
         TOTAL TIME 1.71936E+07 2.86560E+05  4776.0      199.00     0.54483    


end timestep


start timestep kper="200" kstp="1" mode="normal"

 #Stressperiod Save Options

 BEGIN READING OUTPUT CONTROL FOR STRESS PERIOD 200
      ALL TIME STEPS WILL BE SAVED
      ALL TIME STEPS WILL BE SAVED

 END READING OUTPUT CONTROL FOR STRESS PERIOD 200


 PROCESSING STORAGE PERIOD DATA
 END PROCESSING STORAGE PERIOD DATA


 STRESS PERIOD 200 IS TRANSIENT


 REUSING DRNS FROM LAST STRESS PERIOD

 REUSING RIVS FROM LAST STRESS PERIOD

 REUSING RIVS FROM LAST STRESS PERIOD

 REUSING RCHS FROM LAST STRESS PERIOD
 UBDSV06 SAVING              DRN IN MODEL GWF_1            PACKAGE GWF_1           CONNECTED TO MODEL GWF_1            PACKAGE DRN_SYS1         ON UNIT   1018 AT TIME STEP      1, STRESS PERIOD    200
 UBDSV06 SAVING              RIV IN MODEL GWF_1            PACKAGE GWF_1           CONNECTED TO MODEL GWF_1            PACKAGE RIV_SYS1         ON UNIT   1018 AT TIME STEP      1, STRESS PERIOD    200
 UBDSV06 SAVING              RIV IN MODEL GWF_1            PACKAGE GWF_1           CONNECTED TO MODEL GWF_1            PACKAGE RIV_SYS2         ON UNIT   1018 AT TIME STEP      1, STRESS PERIOD    200
 UBDSV06 SAVING              RCH IN MODEL GWF_1            PACKAGE GWF_1           CONNECTED TO MODEL GWF_1            PACKAGE RCH_MSW          ON UNIT   1018 AT TIME STEP      1, STRESS PERIOD    200

 HEAD WILL BE SAVED ON UNIT 1017 AT END OF TIME STEP    1, STRESS PERIOD  200


  VOLUME BUDGET FOR ENTIRE MODEL AT END OF TIME STEP    1, STRESS PERIOD 200
  ---------------------------------------------------------------------------------------------------

     CUMULATIVE VOLUME      L**3       RATES FOR THIS TIME STEP      L**3/T          PACKAGE NAME    
     ------------------                 ------------------------                     ----------------

           IN:                                      IN:
           ---                                      ---
              STO-SS =      211412.9253                STO-SS =         196.7026     STORAGE                          
                 DRN =           0.0000                   DRN =           0.0000     DRN_SYS1                         
                 RIV =      145451.2312                   RIV =        1156.0739     RIV_SYS1                         
                 RIV =           0.0000                   RIV =           0.0000     RIV_SYS2                         
                 RCH =      261081.5187                   RCH =         194.2185     RCH_MSW                          

            TOTAL IN =      617945.6751              TOTAL IN =        1546.9951

          OUT:                                     OUT:
          ----                                     ----
              STO-SS =       15743.4114                STO-SS =           0.0000     STORAGE                          
                 DRN =       12634.0068                   DRN =          20.4996     DRN_SYS1                         
                 RIV =      550753.2132                   RIV =        1433.2594     RIV_SYS1                         
                 RIV =       35090.8535                   RIV =          66.9658     RIV_SYS2                         
                 RCH =        3724.3390                   RCH =          26.2703     RCH_MSW                          

           TOTAL OUT =      617945.8239             TOTAL OUT =        1546.9952

            IN - OUT =          -0.1488              IN - OUT =      -1.0067E-04

 PERCENT DISCREPANCY =          -0.00     PERCENT DISCREPANCY =          -0.00




         TIME SUMMARY AT END OF TIME STEP    1 IN STRESS PERIOD  200
                    SECONDS     MINUTES      HOURS       DAYS        YEARS
                    -----------------------------------------------------------
   TIME STEP LENGTH  86400.      1440.0      24.000      1.0000     2.73785E-03
 STRESS PERIOD TIME  86400.      1440.0      24.000      1.0000     2.73785E-03
         TOTAL TIME 1.72800E+07 2.88000E+05  4800.0      200.00     0.54757    


end timestep


start timestep kper="201" kstp="1" mode="normal"

 #Stressperiod Save Options

 BEGIN READING OUTPUT CONTROL FOR STRESS PERIOD 201
      ALL TIME STEPS WILL BE SAVED
      ALL TIME STEPS WILL BE SAVED

 END READING OUTPUT CONTROL FOR STRESS PERIOD 201


 PROCESSING STORAGE PERIOD DATA
 END PROCESSING STORAGE PERIOD DATA


 STRESS PERIOD 201 IS TRANSIENT


 REUSING DRNS FROM LAST STRESS PERIOD

 REUSING RIVS FROM LAST STRESS PERIOD

 REUSING RIVS FROM LAST STRESS PERIOD

 REUSING RCHS FROM LAST STRESS PERIOD
 UBDSV06 SAVING              DRN IN MODEL GWF_1            PACKAGE GWF_1           CONNECTED TO MODEL GWF_1            PACKAGE DRN_SYS1         ON UNIT   1018 AT TIME STEP      1, STRESS PERIOD    201
 UBDSV06 SAVING              RIV IN MODEL GWF_1            PACKAGE GWF_1           CONNECTED TO MODEL GWF_1            PACKAGE RIV_SYS1         ON UNIT   1018 AT TIME STEP      1, STRESS PERIOD    201
 UBDSV06 SAVING              RIV IN MODEL GWF_1            PACKAGE GWF_1           CONNECTED TO MODEL GWF_1            PACKAGE RIV_SYS2         ON UNIT   1018 AT TIME STEP      1, STRESS PERIOD    201
 UBDSV06 SAVING              RCH IN MODEL GWF_1            PACKAGE GWF_1           CONNECTED TO MODEL GWF_1            PACKAGE RCH_MSW          ON UNIT   1018 AT TIME STEP      1, STRESS PERIOD    201

 HEAD WILL BE SAVED ON UNIT 1017 AT END OF TIME STEP    1, STRESS PERIOD  201


  VOLUME BUDGET FOR ENTIRE MODEL AT END OF TIME STEP    1, STRESS PERIOD 201
  ---------------------------------------------------------------------------------------------------

     CUMULATIVE VOLUME      L**3       RATES FOR THIS TIME STEP      L**3/T          PACKAGE NAME    
     ------------------                 ------------------------                     ----------------

           IN:                                      IN:
           ---                                      ---
              STO-SS =      211607.0247                STO-SS =         194.0995     STORAGE                          
                 DRN =           0.0000                   DRN =           0.0000     DRN_SYS1                         
                 RIV =      146611.8392                   RIV =        1160.6080     RIV_SYS1                         
                 RIV =           0.0000                   RIV =           0.0000     RIV_SYS2                         
                 RCH =      261269.0507                   RCH =         187.5320     RCH_MSW                          

            TOTAL IN =      619487.9146              TOTAL IN =        1542.2395

          OUT:                                     OUT:
          ----                                     ----
              STO-SS =       15743.4114                STO-SS =           0.0000     STORAGE                          
                 DRN =       12654.2703                   DRN =          20.2635     DRN_SYS1                         
                 RIV =      552180.5189                   RIV =        1427.3057     RIV_SYS1                         
                 RIV =       35157.2133                   RIV =          66.3597     RIV_SYS2                         
                 RCH =        3752.6488                   RCH =          28.3098     RCH_MSW                          

           TOTAL OUT =      619488.0627             TOTAL OUT =        1542.2388

            IN - OUT =          -0.1481              IN - OUT =       6.9039E-04

 PERCENT DISCREPANCY =          -0.00     PERCENT DISCREPANCY =           0.00




         TIME SUMMARY AT END OF TIME STEP    1 IN STRESS PERIOD  201
                    SECONDS     MINUTES      HOURS       DAYS        YEARS
                    -----------------------------------------------------------
   TIME STEP LENGTH  86400.      1440.0      24.000      1.0000     2.73785E-03
 STRESS PERIOD TIME  86400.      1440.0      24.000      1.0000     2.73785E-03
         TOTAL TIME 1.73664E+07 2.89440E+05  4824.0      201.00     0.55031    


end timestep


start timestep kper="202" kstp="1" mode="normal"

 #Stressperiod Save Options

 BEGIN READING OUTPUT CONTROL FOR STRESS PERIOD 202
      ALL TIME STEPS WILL BE SAVED
      ALL TIME STEPS WILL BE SAVED

 END READING OUTPUT CONTROL FOR STRESS PERIOD 202


 PROCESSING STORAGE PERIOD DATA
 END PROCESSING STORAGE PERIOD DATA


 STRESS PERIOD 202 IS TRANSIENT


 REUSING DRNS FROM LAST STRESS PERIOD

 REUSING RIVS FROM LAST STRESS PERIOD

 REUSING RIVS FROM LAST STRESS PERIOD

 REUSING RCHS FROM LAST STRESS PERIOD
 UBDSV06 SAVING              DRN IN MODEL GWF_1            PACKAGE GWF_1           CONNECTED TO MODEL GWF_1            PACKAGE DRN_SYS1         ON UNIT   1018 AT TIME STEP      1, STRESS PERIOD    202
 UBDSV06 SAVING              RIV IN MODEL GWF_1            PACKAGE GWF_1           CONNECTED TO MODEL GWF_1            PACKAGE RIV_SYS1         ON UNIT   1018 AT TIME STEP      1, STRESS PERIOD    202
 UBDSV06 SAVING              RIV IN MODEL GWF_1            PACKAGE GWF_1           CONNECTED TO MODEL GWF_1            PACKAGE RIV_SYS2         ON UNIT   1018 AT TIME STEP      1, STRESS PERIOD    202
 UBDSV06 SAVING              RCH IN MODEL GWF_1            PACKAGE GWF_1           CONNECTED TO MODEL GWF_1            PACKAGE RCH_MSW          ON UNIT   1018 AT TIME STEP      1, STRESS PERIOD    202

 HEAD WILL BE SAVED ON UNIT 1017 AT END OF TIME STEP    1, STRESS PERIOD  202


  VOLUME BUDGET FOR ENTIRE MODEL AT END OF TIME STEP    1, STRESS PERIOD 202
  ---------------------------------------------------------------------------------------------------

     CUMULATIVE VOLUME      L**3       RATES FOR THIS TIME STEP      L**3/T          PACKAGE NAME    
     ------------------                 ------------------------                     ----------------

           IN:                                      IN:
           ---                                      ---
              STO-SS =      211798.6159                STO-SS =         191.5912     STORAGE                          
                 DRN =           0.0000                   DRN =           0.0000     DRN_SYS1                         
                 RIV =      147776.9005                   RIV =        1165.0613     RIV_SYS1                         
                 RIV =           0.0000                   RIV =           0.0000     RIV_SYS2                         
                 RCH =      261450.2159                   RCH =         181.1652     RCH_MSW                          

            TOTAL IN =      621025.7323              TOTAL IN =        1537.8177

          OUT:                                     OUT:
          ----                                     ----
              STO-SS =       15743.4114                STO-SS =           0.0000     STORAGE                          
                 DRN =       12674.3017                   DRN =          20.0314     DRN_SYS1                         
                 RIV =      553602.1090                   RIV =        1421.5901     RIV_SYS1                         
                 RIV =       35222.9781                   RIV =          65.7648     RIV_SYS2                         
                 RCH =        3783.0808                   RCH =          30.4319     RCH_MSW                          

           TOTAL OUT =      621025.8809             TOTAL OUT =        1537.8182

            IN - OUT =          -0.1487              IN - OUT =      -5.6127E-04

 PERCENT DISCREPANCY =          -0.00     PERCENT DISCREPANCY =          -0.00




         TIME SUMMARY AT END OF TIME STEP    1 IN STRESS PERIOD  202
                    SECONDS     MINUTES      HOURS       DAYS        YEARS
                    -----------------------------------------------------------
   TIME STEP LENGTH  86400.      1440.0      24.000      1.0000     2.73785E-03
 STRESS PERIOD TIME  86400.      1440.0      24.000      1.0000     2.73785E-03
         TOTAL TIME 1.74528E+07 2.90880E+05  4848.0      202.00     0.55305    


end timestep


start timestep kper="203" kstp="1" mode="normal"

 #Stressperiod Save Options

 BEGIN READING OUTPUT CONTROL FOR STRESS PERIOD 203
      ALL TIME STEPS WILL BE SAVED
      ALL TIME STEPS WILL BE SAVED

 END READING OUTPUT CONTROL FOR STRESS PERIOD 203


 PROCESSING STORAGE PERIOD DATA
 END PROCESSING STORAGE PERIOD DATA


 STRESS PERIOD 203 IS TRANSIENT


 REUSING DRNS FROM LAST STRESS PERIOD

 REUSING RIVS FROM LAST STRESS PERIOD

 REUSING RIVS FROM LAST STRESS PERIOD

 REUSING RCHS FROM LAST STRESS PERIOD
 UBDSV06 SAVING              DRN IN MODEL GWF_1            PACKAGE GWF_1           CONNECTED TO MODEL GWF_1            PACKAGE DRN_SYS1         ON UNIT   1018 AT TIME STEP      1, STRESS PERIOD    203
 UBDSV06 SAVING              RIV IN MODEL GWF_1            PACKAGE GWF_1           CONNECTED TO MODEL GWF_1            PACKAGE RIV_SYS1         ON UNIT   1018 AT TIME STEP      1, STRESS PERIOD    203
 UBDSV06 SAVING              RIV IN MODEL GWF_1            PACKAGE GWF_1           CONNECTED TO MODEL GWF_1            PACKAGE RIV_SYS2         ON UNIT   1018 AT TIME STEP      1, STRESS PERIOD    203
 UBDSV06 SAVING              RCH IN MODEL GWF_1            PACKAGE GWF_1           CONNECTED TO MODEL GWF_1            PACKAGE RCH_MSW          ON UNIT   1018 AT TIME STEP      1, STRESS PERIOD    203

 HEAD WILL BE SAVED ON UNIT 1017 AT END OF TIME STEP    1, STRESS PERIOD  203


  VOLUME BUDGET FOR ENTIRE MODEL AT END OF TIME STEP    1, STRESS PERIOD 203
  ---------------------------------------------------------------------------------------------------

     CUMULATIVE VOLUME      L**3       RATES FOR THIS TIME STEP      L**3/T          PACKAGE NAME    
     ------------------                 ------------------------                     ----------------

           IN:                                      IN:
           ---                                      ---
              STO-SS =      211987.7468                STO-SS =         189.1309     STORAGE                          
                 DRN =           0.0000                   DRN =           0.0000     DRN_SYS1                         
                 RIV =      148946.2658                   RIV =        1169.3652     RIV_SYS1                         
                 RIV =           0.0000                   RIV =           0.0000     RIV_SYS2                         
                 RCH =      261625.2431                   RCH =         175.0273     RCH_MSW                          

            TOTAL IN =      622559.2557              TOTAL IN =        1533.5234

          OUT:                                     OUT:
          ----                                     ----
              STO-SS =       15743.4114                STO-SS =           0.0000     STORAGE                          
                 DRN =       12694.1052                   DRN =          19.8035     DRN_SYS1                         
                 RIV =      555018.1180                   RIV =        1416.0090     RIV_SYS1                         
                 RIV =       35288.1582                   RIV =          65.1801     RIV_SYS2                         
                 RCH =        3815.6117                   RCH =          32.5309     RCH_MSW                          

           TOTAL OUT =      622559.4044             TOTAL OUT =        1533.5235

            IN - OUT =          -0.1487              IN - OUT =      -9.5625E-05

 PERCENT DISCREPANCY =          -0.00     PERCENT DISCREPANCY =          -0.00




         TIME SUMMARY AT END OF TIME STEP    1 IN STRESS PERIOD  203
                    SECONDS     MINUTES      HOURS       DAYS        YEARS
                    -----------------------------------------------------------
   TIME STEP LENGTH  86400.      1440.0      24.000      1.0000     2.73785E-03
 STRESS PERIOD TIME  86400.      1440.0      24.000      1.0000     2.73785E-03
         TOTAL TIME 1.75392E+07 2.92320E+05  4872.0      203.00     0.55578    


end timestep


start timestep kper="204" kstp="1" mode="normal"

 #Stressperiod Save Options

 BEGIN READING OUTPUT CONTROL FOR STRESS PERIOD 204
      ALL TIME STEPS WILL BE SAVED
      ALL TIME STEPS WILL BE SAVED

 END READING OUTPUT CONTROL FOR STRESS PERIOD 204


 PROCESSING STORAGE PERIOD DATA
 END PROCESSING STORAGE PERIOD DATA


 STRESS PERIOD 204 IS TRANSIENT


 REUSING DRNS FROM LAST STRESS PERIOD

 REUSING RIVS FROM LAST STRESS PERIOD

 REUSING RIVS FROM LAST STRESS PERIOD

 REUSING RCHS FROM LAST STRESS PERIOD
 UBDSV06 SAVING              DRN IN MODEL GWF_1            PACKAGE GWF_1           CONNECTED TO MODEL GWF_1            PACKAGE DRN_SYS1         ON UNIT   1018 AT TIME STEP      1, STRESS PERIOD    204
 UBDSV06 SAVING              RIV IN MODEL GWF_1            PACKAGE GWF_1           CONNECTED TO MODEL GWF_1            PACKAGE RIV_SYS1         ON UNIT   1018 AT TIME STEP      1, STRESS PERIOD    204
 UBDSV06 SAVING              RIV IN MODEL GWF_1            PACKAGE GWF_1           CONNECTED TO MODEL GWF_1            PACKAGE RIV_SYS2         ON UNIT   1018 AT TIME STEP      1, STRESS PERIOD    204
 UBDSV06 SAVING              RCH IN MODEL GWF_1            PACKAGE GWF_1           CONNECTED TO MODEL GWF_1            PACKAGE RCH_MSW          ON UNIT   1018 AT TIME STEP      1, STRESS PERIOD    204

 HEAD WILL BE SAVED ON UNIT 1017 AT END OF TIME STEP    1, STRESS PERIOD  204


  VOLUME BUDGET FOR ENTIRE MODEL AT END OF TIME STEP    1, STRESS PERIOD 204
  ---------------------------------------------------------------------------------------------------

     CUMULATIVE VOLUME      L**3       RATES FOR THIS TIME STEP      L**3/T          PACKAGE NAME    
     ------------------                 ------------------------                     ----------------

           IN:                                      IN:
           ---                                      ---
              STO-SS =      212171.5272                STO-SS =         183.7804     STORAGE                          
                 DRN =           0.0000                   DRN =           0.0000     DRN_SYS1                         
                 RIV =      150119.7885                   RIV =        1173.5228     RIV_SYS1                         
                 RIV =           0.0000                   RIV =           0.0000     RIV_SYS2                         
                 RCH =      261797.3293                   RCH =         172.0861     RCH_MSW                          

            TOTAL IN =      624088.6450              TOTAL IN =        1529.3893

          OUT:                                     OUT:
          ----                                     ----
              STO-SS =       15743.4114                STO-SS =           0.0000     STORAGE                          
                 DRN =       12713.6964                   DRN =          19.5912     DRN_SYS1                         
                 RIV =      556428.6756                   RIV =        1410.5577     RIV_SYS1                         
                 RIV =       35352.7641                   RIV =          64.6059     RIV_SYS2                         
                 RCH =        3850.2459                   RCH =          34.6342     RCH_MSW                          

           TOTAL OUT =      624088.7934             TOTAL OUT =        1529.3889

            IN - OUT =          -0.1484              IN - OUT =       3.5754E-04

 PERCENT DISCREPANCY =          -0.00     PERCENT DISCREPANCY =           0.00




         TIME SUMMARY AT END OF TIME STEP    1 IN STRESS PERIOD  204
                    SECONDS     MINUTES      HOURS       DAYS        YEARS
                    -----------------------------------------------------------
   TIME STEP LENGTH  86400.      1440.0      24.000      1.0000     2.73785E-03
 STRESS PERIOD TIME  86400.      1440.0      24.000      1.0000     2.73785E-03
         TOTAL TIME 1.76256E+07 2.93760E+05  4896.0      204.00     0.55852    


end timestep


start timestep kper="205" kstp="1" mode="normal"

 #Stressperiod Save Options

 BEGIN READING OUTPUT CONTROL FOR STRESS PERIOD 205
      ALL TIME STEPS WILL BE SAVED
      ALL TIME STEPS WILL BE SAVED

 END READING OUTPUT CONTROL FOR STRESS PERIOD 205


 PROCESSING STORAGE PERIOD DATA
 END PROCESSING STORAGE PERIOD DATA


 STRESS PERIOD 205 IS TRANSIENT


 REUSING DRNS FROM LAST STRESS PERIOD

 REUSING RIVS FROM LAST STRESS PERIOD

 REUSING RIVS FROM LAST STRESS PERIOD

 REUSING RCHS FROM LAST STRESS PERIOD
 UBDSV06 SAVING              DRN IN MODEL GWF_1            PACKAGE GWF_1           CONNECTED TO MODEL GWF_1            PACKAGE DRN_SYS1         ON UNIT   1018 AT TIME STEP      1, STRESS PERIOD    205
 UBDSV06 SAVING              RIV IN MODEL GWF_1            PACKAGE GWF_1           CONNECTED TO MODEL GWF_1            PACKAGE RIV_SYS1         ON UNIT   1018 AT TIME STEP      1, STRESS PERIOD    205
 UBDSV06 SAVING              RIV IN MODEL GWF_1            PACKAGE GWF_1           CONNECTED TO MODEL GWF_1            PACKAGE RIV_SYS2         ON UNIT   1018 AT TIME STEP      1, STRESS PERIOD    205
 UBDSV06 SAVING              RCH IN MODEL GWF_1            PACKAGE GWF_1           CONNECTED TO MODEL GWF_1            PACKAGE RCH_MSW          ON UNIT   1018 AT TIME STEP      1, STRESS PERIOD    205

 HEAD WILL BE SAVED ON UNIT 1017 AT END OF TIME STEP    1, STRESS PERIOD  205


  VOLUME BUDGET FOR ENTIRE MODEL AT END OF TIME STEP    1, STRESS PERIOD 205
  ---------------------------------------------------------------------------------------------------

     CUMULATIVE VOLUME      L**3       RATES FOR THIS TIME STEP      L**3/T          PACKAGE NAME    
     ------------------                 ------------------------                     ----------------

           IN:                                      IN:
           ---                                      ---
              STO-SS =      212352.9855                STO-SS =         181.4583     STORAGE                          
                 DRN =           0.0000                   DRN =           0.0000     DRN_SYS1                         
                 RIV =      151297.3324                   RIV =        1177.5439     RIV_SYS1                         
                 RIV =           0.0000                   RIV =           0.0000     RIV_SYS2                         
                 RCH =      261963.6731                   RCH =         166.3439     RCH_MSW                          

            TOTAL IN =      625613.9910              TOTAL IN =        1525.3461

          OUT:                                     OUT:
          ----                                     ----
              STO-SS =       15743.4114                STO-SS =           0.0000     STORAGE                          
                 DRN =       12733.0791                   DRN =          19.3827     DRN_SYS1                         
                 RIV =      557833.9077                   RIV =        1405.2320     RIV_SYS1                         
                 RIV =       35416.8057                   RIV =          64.0417     RIV_SYS2                         
                 RCH =        3886.9358                   RCH =          36.6900     RCH_MSW                          

           TOTAL OUT =      625614.1397             TOTAL OUT =        1525.3464

            IN - OUT =          -0.1487              IN - OUT =      -2.8070E-04

 PERCENT DISCREPANCY =          -0.00     PERCENT DISCREPANCY =          -0.00




         TIME SUMMARY AT END OF TIME STEP    1 IN STRESS PERIOD  205
                    SECONDS     MINUTES      HOURS       DAYS        YEARS
                    -----------------------------------------------------------
   TIME STEP LENGTH  86400.      1440.0      24.000      1.0000     2.73785E-03
 STRESS PERIOD TIME  86400.      1440.0      24.000      1.0000     2.73785E-03
         TOTAL TIME 1.77120E+07 2.95200E+05  4920.0      205.00     0.56126    


end timestep


start timestep kper="206" kstp="1" mode="normal"

 #Stressperiod Save Options

 BEGIN READING OUTPUT CONTROL FOR STRESS PERIOD 206
      ALL TIME STEPS WILL BE SAVED
      ALL TIME STEPS WILL BE SAVED

 END READING OUTPUT CONTROL FOR STRESS PERIOD 206


 PROCESSING STORAGE PERIOD DATA
 END PROCESSING STORAGE PERIOD DATA


 STRESS PERIOD 206 IS TRANSIENT


 REUSING DRNS FROM LAST STRESS PERIOD

 REUSING RIVS FROM LAST STRESS PERIOD

 REUSING RIVS FROM LAST STRESS PERIOD

 REUSING RCHS FROM LAST STRESS PERIOD
 UBDSV06 SAVING              DRN IN MODEL GWF_1            PACKAGE GWF_1           CONNECTED TO MODEL GWF_1            PACKAGE DRN_SYS1         ON UNIT   1018 AT TIME STEP      1, STRESS PERIOD    206
 UBDSV06 SAVING              RIV IN MODEL GWF_1            PACKAGE GWF_1           CONNECTED TO MODEL GWF_1            PACKAGE RIV_SYS1         ON UNIT   1018 AT TIME STEP      1, STRESS PERIOD    206
 UBDSV06 SAVING              RIV IN MODEL GWF_1            PACKAGE GWF_1           CONNECTED TO MODEL GWF_1            PACKAGE RIV_SYS2         ON UNIT   1018 AT TIME STEP      1, STRESS PERIOD    206
 UBDSV06 SAVING              RCH IN MODEL GWF_1            PACKAGE GWF_1           CONNECTED TO MODEL GWF_1            PACKAGE RCH_MSW          ON UNIT   1018 AT TIME STEP      1, STRESS PERIOD    206

 HEAD WILL BE SAVED ON UNIT 1017 AT END OF TIME STEP    1, STRESS PERIOD  206


  VOLUME BUDGET FOR ENTIRE MODEL AT END OF TIME STEP    1, STRESS PERIOD 206
  ---------------------------------------------------------------------------------------------------

     CUMULATIVE VOLUME      L**3       RATES FOR THIS TIME STEP      L**3/T          PACKAGE NAME    
     ------------------                 ------------------------                     ----------------

           IN:                                      IN:
           ---                                      ---
              STO-SS =      212512.5257                STO-SS =         159.5402     STORAGE                          
                 DRN =           0.0000                   DRN =           0.0000     DRN_SYS1                         
                 RIV =      152477.9691                   RIV =        1180.6367     RIV_SYS1                         
                 RIV =           0.0000                   RIV =           0.0000     RIV_SYS2                         
                 RCH =      262147.0443                   RCH =         183.3712     RCH_MSW                          

            TOTAL IN =      627137.5391              TOTAL IN =        1523.5481

          OUT:                                     OUT:
          ----                                     ----
              STO-SS =       15743.4114                STO-SS =           0.0000     STORAGE                          
                 DRN =       12752.2630                   DRN =          19.1839     DRN_SYS1                         
                 RIV =      559236.0736                   RIV =        1402.1660     RIV_SYS1                         
                 RIV =       35480.3222                   RIV =          63.5164     RIV_SYS2                         
                 RCH =        3925.6235                   RCH =          38.6877     RCH_MSW                          

           TOTAL OUT =      627137.6936             TOTAL OUT =        1523.5539

            IN - OUT =          -0.1545              IN - OUT =      -5.8242E-03

 PERCENT DISCREPANCY =          -0.00     PERCENT DISCREPANCY =          -0.00




         TIME SUMMARY AT END OF TIME STEP    1 IN STRESS PERIOD  206
                    SECONDS     MINUTES      HOURS       DAYS        YEARS
                    -----------------------------------------------------------
   TIME STEP LENGTH  86400.      1440.0      24.000      1.0000     2.73785E-03
 STRESS PERIOD TIME  86400.      1440.0      24.000      1.0000     2.73785E-03
         TOTAL TIME 1.77984E+07 2.96640E+05  4944.0      206.00     0.56400    


end timestep


start timestep kper="207" kstp="1" mode="normal"

 #Stressperiod Save Options

 BEGIN READING OUTPUT CONTROL FOR STRESS PERIOD 207
      ALL TIME STEPS WILL BE SAVED
      ALL TIME STEPS WILL BE SAVED

 END READING OUTPUT CONTROL FOR STRESS PERIOD 207


 PROCESSING STORAGE PERIOD DATA
 END PROCESSING STORAGE PERIOD DATA


 STRESS PERIOD 207 IS TRANSIENT


 REUSING DRNS FROM LAST STRESS PERIOD

 REUSING RIVS FROM LAST STRESS PERIOD

 REUSING RIVS FROM LAST STRESS PERIOD

 REUSING RCHS FROM LAST STRESS PERIOD
 UBDSV06 SAVING              DRN IN MODEL GWF_1            PACKAGE GWF_1           CONNECTED TO MODEL GWF_1            PACKAGE DRN_SYS1         ON UNIT   1018 AT TIME STEP      1, STRESS PERIOD    207
 UBDSV06 SAVING              RIV IN MODEL GWF_1            PACKAGE GWF_1           CONNECTED TO MODEL GWF_1            PACKAGE RIV_SYS1         ON UNIT   1018 AT TIME STEP      1, STRESS PERIOD    207
 UBDSV06 SAVING              RIV IN MODEL GWF_1            PACKAGE GWF_1           CONNECTED TO MODEL GWF_1            PACKAGE RIV_SYS2         ON UNIT   1018 AT TIME STEP      1, STRESS PERIOD    207
 UBDSV06 SAVING              RCH IN MODEL GWF_1            PACKAGE GWF_1           CONNECTED TO MODEL GWF_1            PACKAGE RCH_MSW          ON UNIT   1018 AT TIME STEP      1, STRESS PERIOD    207

 HEAD WILL BE SAVED ON UNIT 1017 AT END OF TIME STEP    1, STRESS PERIOD  207


  VOLUME BUDGET FOR ENTIRE MODEL AT END OF TIME STEP    1, STRESS PERIOD 207
  ---------------------------------------------------------------------------------------------------

     CUMULATIVE VOLUME      L**3       RATES FOR THIS TIME STEP      L**3/T          PACKAGE NAME    
     ------------------                 ------------------------                     ----------------

           IN:                                      IN:
           ---                                      ---
              STO-SS =      212692.0161                STO-SS =         179.4904     STORAGE                          
                 DRN =           0.0000                   DRN =           0.0000     DRN_SYS1                         
                 RIV =      153662.5803                   RIV =        1184.6112     RIV_SYS1                         
                 RIV =           0.0000                   RIV =           0.0000     RIV_SYS2                         
                 RCH =      262301.8920                   RCH =         154.8476     RCH_MSW                          

            TOTAL IN =      628656.4884              TOTAL IN =        1518.9492

          OUT:                                     OUT:
          ----                                     ----
              STO-SS =       15743.4114                STO-SS =           0.0000     STORAGE                          
                 DRN =       12771.2461                   DRN =          18.9831     DRN_SYS1                         
                 RIV =      560632.4413                   RIV =        1396.3676     RIV_SYS1                         
                 RIV =       35543.3040                   RIV =          62.9818     RIV_SYS2                         
                 RCH =        3966.2394                   RCH =          40.6159     RCH_MSW                          

           TOTAL OUT =      628656.6421             TOTAL OUT =        1518.9485

            IN - OUT =          -0.1537              IN - OUT =       7.9245E-04

 PERCENT DISCREPANCY =          -0.00     PERCENT DISCREPANCY =           0.00




         TIME SUMMARY AT END OF TIME STEP    1 IN STRESS PERIOD  207
                    SECONDS     MINUTES      HOURS       DAYS        YEARS
                    -----------------------------------------------------------
   TIME STEP LENGTH  86400.      1440.0      24.000      1.0000     2.73785E-03
 STRESS PERIOD TIME  86400.      1440.0      24.000      1.0000     2.73785E-03
         TOTAL TIME 1.78848E+07 2.98080E+05  4968.0      207.00     0.56674    


end timestep


start timestep kper="208" kstp="1" mode="normal"

 #Stressperiod Save Options

 BEGIN READING OUTPUT CONTROL FOR STRESS PERIOD 208
      ALL TIME STEPS WILL BE SAVED
      ALL TIME STEPS WILL BE SAVED

 END READING OUTPUT CONTROL FOR STRESS PERIOD 208


 PROCESSING STORAGE PERIOD DATA
 END PROCESSING STORAGE PERIOD DATA


 STRESS PERIOD 208 IS TRANSIENT


 REUSING DRNS FROM LAST STRESS PERIOD

 REUSING RIVS FROM LAST STRESS PERIOD

 REUSING RIVS FROM LAST STRESS PERIOD

 REUSING RCHS FROM LAST STRESS PERIOD
 UBDSV06 SAVING              DRN IN MODEL GWF_1            PACKAGE GWF_1           CONNECTED TO MODEL GWF_1            PACKAGE DRN_SYS1         ON UNIT   1018 AT TIME STEP      1, STRESS PERIOD    208
 UBDSV06 SAVING              RIV IN MODEL GWF_1            PACKAGE GWF_1           CONNECTED TO MODEL GWF_1            PACKAGE RIV_SYS1         ON UNIT   1018 AT TIME STEP      1, STRESS PERIOD    208
 UBDSV06 SAVING              RIV IN MODEL GWF_1            PACKAGE GWF_1           CONNECTED TO MODEL GWF_1            PACKAGE RIV_SYS2         ON UNIT   1018 AT TIME STEP      1, STRESS PERIOD    208
 UBDSV06 SAVING              RCH IN MODEL GWF_1            PACKAGE GWF_1           CONNECTED TO MODEL GWF_1            PACKAGE RCH_MSW          ON UNIT   1018 AT TIME STEP      1, STRESS PERIOD    208

 HEAD WILL BE SAVED ON UNIT 1017 AT END OF TIME STEP    1, STRESS PERIOD  208


  VOLUME BUDGET FOR ENTIRE MODEL AT END OF TIME STEP    1, STRESS PERIOD 208
  ---------------------------------------------------------------------------------------------------

     CUMULATIVE VOLUME      L**3       RATES FOR THIS TIME STEP      L**3/T          PACKAGE NAME    
     ------------------                 ------------------------                     ----------------

           IN:                                      IN:
           ---                                      ---
              STO-SS =      212868.7505                STO-SS =         176.7343     STORAGE                          
                 DRN =           0.0000                   DRN =           0.0000     DRN_SYS1                         
                 RIV =      154850.9834                   RIV =        1188.4031     RIV_SYS1                         
                 RIV =           0.0000                   RIV =           0.0000     RIV_SYS2                         
                 RCH =      262451.4863                   RCH =         149.5943     RCH_MSW                          

            TOTAL IN =      630171.2202              TOTAL IN =        1514.7318

          OUT:                                     OUT:
          ----                                     ----
              STO-SS =       15743.4114                STO-SS =           0.0000     STORAGE                          
                 DRN =       12790.0266                   DRN =          18.7806     DRN_SYS1                         
                 RIV =      562023.4280                   RIV =        1390.9867     RIV_SYS1                         
                 RIV =       35605.7506                   RIV =          62.4466     RIV_SYS2                         
                 RCH =        4008.7568                   RCH =          42.5174     RCH_MSW                          

           TOTAL OUT =      630171.3734             TOTAL OUT =        1514.7313

            IN - OUT =          -0.1532              IN - OUT =       4.7035E-04

 PERCENT DISCREPANCY =          -0.00     PERCENT DISCREPANCY =           0.00




         TIME SUMMARY AT END OF TIME STEP    1 IN STRESS PERIOD  208
                    SECONDS     MINUTES      HOURS       DAYS        YEARS
                    -----------------------------------------------------------
   TIME STEP LENGTH  86400.      1440.0      24.000      1.0000     2.73785E-03
 STRESS PERIOD TIME  86400.      1440.0      24.000      1.0000     2.73785E-03
         TOTAL TIME 1.79712E+07 2.99520E+05  4992.0      208.00     0.56947    


end timestep


start timestep kper="209" kstp="1" mode="normal"

 #Stressperiod Save Options

 BEGIN READING OUTPUT CONTROL FOR STRESS PERIOD 209
      ALL TIME STEPS WILL BE SAVED
      ALL TIME STEPS WILL BE SAVED

 END READING OUTPUT CONTROL FOR STRESS PERIOD 209


 PROCESSING STORAGE PERIOD DATA
 END PROCESSING STORAGE PERIOD DATA


 STRESS PERIOD 209 IS TRANSIENT


 REUSING DRNS FROM LAST STRESS PERIOD

 REUSING RIVS FROM LAST STRESS PERIOD

 REUSING RIVS FROM LAST STRESS PERIOD

 REUSING RCHS FROM LAST STRESS PERIOD
 UBDSV06 SAVING              DRN IN MODEL GWF_1            PACKAGE GWF_1           CONNECTED TO MODEL GWF_1            PACKAGE DRN_SYS1         ON UNIT   1018 AT TIME STEP      1, STRESS PERIOD    209
 UBDSV06 SAVING              RIV IN MODEL GWF_1            PACKAGE GWF_1           CONNECTED TO MODEL GWF_1            PACKAGE RIV_SYS1         ON UNIT   1018 AT TIME STEP      1, STRESS PERIOD    209
 UBDSV06 SAVING              RIV IN MODEL GWF_1            PACKAGE GWF_1           CONNECTED TO MODEL GWF_1            PACKAGE RIV_SYS2         ON UNIT   1018 AT TIME STEP      1, STRESS PERIOD    209
 UBDSV06 SAVING              RCH IN MODEL GWF_1            PACKAGE GWF_1           CONNECTED TO MODEL GWF_1            PACKAGE RCH_MSW          ON UNIT   1018 AT TIME STEP      1, STRESS PERIOD    209

 HEAD WILL BE SAVED ON UNIT 1017 AT END OF TIME STEP    1, STRESS PERIOD  209


  VOLUME BUDGET FOR ENTIRE MODEL AT END OF TIME STEP    1, STRESS PERIOD 209
  ---------------------------------------------------------------------------------------------------

     CUMULATIVE VOLUME      L**3       RATES FOR THIS TIME STEP      L**3/T          PACKAGE NAME    
     ------------------                 ------------------------                     ----------------

           IN:                                      IN:
           ---                                      ---
              STO-SS =      212969.0401                STO-SS =         100.2896     STORAGE                          
                 DRN =           0.0000                   DRN =           0.0000     DRN_SYS1                         
                 RIV =      156041.7309                   RIV =        1190.7475     RIV_SYS1                         
                 RIV =           0.0000                   RIV =           0.0000     RIV_SYS2                         
                 RCH =      262674.5011                   RCH =         223.0148     RCH_MSW                          

            TOTAL IN =      631685.2721              TOTAL IN =        1514.0519

          OUT:                                     OUT:
          ----                                     ----
              STO-SS =       15744.1087                STO-SS =           0.6973     STORAGE                          
                 DRN =       12808.6935                   DRN =          18.6668     DRN_SYS1                         
                 RIV =      563411.4373                   RIV =        1388.0093     RIV_SYS1                         
                 RIV =       35667.9654                   RIV =          62.2148     RIV_SYS2                         
                 RCH =        4053.2294                   RCH =          44.4726     RCH_MSW                          

           TOTAL OUT =      631685.4342             TOTAL OUT =        1514.0608

            IN - OUT =          -0.1622              IN - OUT =      -8.9232E-03

 PERCENT DISCREPANCY =          -0.00     PERCENT DISCREPANCY =          -0.00




         TIME SUMMARY AT END OF TIME STEP    1 IN STRESS PERIOD  209
                    SECONDS     MINUTES      HOURS       DAYS        YEARS
                    -----------------------------------------------------------
   TIME STEP LENGTH  86400.      1440.0      24.000      1.0000     2.73785E-03
 STRESS PERIOD TIME  86400.      1440.0      24.000      1.0000     2.73785E-03
         TOTAL TIME 1.80576E+07 3.00960E+05  5016.0      209.00     0.57221    


end timestep


start timestep kper="210" kstp="1" mode="normal"

 #Stressperiod Save Options

 BEGIN READING OUTPUT CONTROL FOR STRESS PERIOD 210
      ALL TIME STEPS WILL BE SAVED
      ALL TIME STEPS WILL BE SAVED

 END READING OUTPUT CONTROL FOR STRESS PERIOD 210


 PROCESSING STORAGE PERIOD DATA
 END PROCESSING STORAGE PERIOD DATA


 STRESS PERIOD 210 IS TRANSIENT


 REUSING DRNS FROM LAST STRESS PERIOD

 REUSING RIVS FROM LAST STRESS PERIOD

 REUSING RIVS FROM LAST STRESS PERIOD

 REUSING RCHS FROM LAST STRESS PERIOD
 UBDSV06 SAVING              DRN IN MODEL GWF_1            PACKAGE GWF_1           CONNECTED TO MODEL GWF_1            PACKAGE DRN_SYS1         ON UNIT   1018 AT TIME STEP      1, STRESS PERIOD    210
 UBDSV06 SAVING              RIV IN MODEL GWF_1            PACKAGE GWF_1           CONNECTED TO MODEL GWF_1            PACKAGE RIV_SYS1         ON UNIT   1018 AT TIME STEP      1, STRESS PERIOD    210
 UBDSV06 SAVING              RIV IN MODEL GWF_1            PACKAGE GWF_1           CONNECTED TO MODEL GWF_1            PACKAGE RIV_SYS2         ON UNIT   1018 AT TIME STEP      1, STRESS PERIOD    210
 UBDSV06 SAVING              RCH IN MODEL GWF_1            PACKAGE GWF_1           CONNECTED TO MODEL GWF_1            PACKAGE RCH_MSW          ON UNIT   1018 AT TIME STEP      1, STRESS PERIOD    210

 HEAD WILL BE SAVED ON UNIT 1017 AT END OF TIME STEP    1, STRESS PERIOD  210


  VOLUME BUDGET FOR ENTIRE MODEL AT END OF TIME STEP    1, STRESS PERIOD 210
  ---------------------------------------------------------------------------------------------------

     CUMULATIVE VOLUME      L**3       RATES FOR THIS TIME STEP      L**3/T          PACKAGE NAME    
     ------------------                 ------------------------                     ----------------

           IN:                                      IN:
           ---                                      ---
              STO-SS =      213123.5937                STO-SS =         154.5537     STORAGE                          
                 DRN =           0.0000                   DRN =           0.0000     DRN_SYS1                         
                 RIV =      157235.1746                   RIV =        1193.4437     RIV_SYS1                         
                 RIV =           0.0000                   RIV =           0.0000     RIV_SYS2                         
                 RCH =      262837.6530                   RCH =         163.1519     RCH_MSW                          

            TOTAL IN =      633196.4213              TOTAL IN =        1511.1493

          OUT:                                     OUT:
          ----                                     ----
              STO-SS =       15744.1087                STO-SS =           0.0000     STORAGE                          
                 DRN =       12827.1646                   DRN =          18.4711     DRN_SYS1                         
                 RIV =      564795.8709                   RIV =        1384.4337     RIV_SYS1                         
                 RIV =       35729.6860                   RIV =          61.7206     RIV_SYS2                         
                 RCH =        4099.7596                   RCH =          46.5302     RCH_MSW                          

           TOTAL OUT =      633196.5899             TOTAL OUT =        1511.1556

            IN - OUT =          -0.1685              IN - OUT =      -6.3698E-03

 PERCENT DISCREPANCY =          -0.00     PERCENT DISCREPANCY =          -0.00




         TIME SUMMARY AT END OF TIME STEP    1 IN STRESS PERIOD  210
                    SECONDS     MINUTES      HOURS       DAYS        YEARS
                    -----------------------------------------------------------
   TIME STEP LENGTH  86400.      1440.0      24.000      1.0000     2.73785E-03
 STRESS PERIOD TIME  86400.      1440.0      24.000      1.0000     2.73785E-03
         TOTAL TIME 1.81440E+07 3.02400E+05  5040.0      210.00     0.57495    


end timestep


start timestep kper="211" kstp="1" mode="normal"

 #Stressperiod Save Options

 BEGIN READING OUTPUT CONTROL FOR STRESS PERIOD 211
      ALL TIME STEPS WILL BE SAVED
      ALL TIME STEPS WILL BE SAVED

 END READING OUTPUT CONTROL FOR STRESS PERIOD 211


 PROCESSING STORAGE PERIOD DATA
 END PROCESSING STORAGE PERIOD DATA


 STRESS PERIOD 211 IS TRANSIENT


 REUSING DRNS FROM LAST STRESS PERIOD

 REUSING RIVS FROM LAST STRESS PERIOD

 REUSING RIVS FROM LAST STRESS PERIOD

 REUSING RCHS FROM LAST STRESS PERIOD
 UBDSV06 SAVING              DRN IN MODEL GWF_1            PACKAGE GWF_1           CONNECTED TO MODEL GWF_1            PACKAGE DRN_SYS1         ON UNIT   1018 AT TIME STEP      1, STRESS PERIOD    211
 UBDSV06 SAVING              RIV IN MODEL GWF_1            PACKAGE GWF_1           CONNECTED TO MODEL GWF_1            PACKAGE RIV_SYS1         ON UNIT   1018 AT TIME STEP      1, STRESS PERIOD    211
 UBDSV06 SAVING              RIV IN MODEL GWF_1            PACKAGE GWF_1           CONNECTED TO MODEL GWF_1            PACKAGE RIV_SYS2         ON UNIT   1018 AT TIME STEP      1, STRESS PERIOD    211
 UBDSV06 SAVING              RCH IN MODEL GWF_1            PACKAGE GWF_1           CONNECTED TO MODEL GWF_1            PACKAGE RCH_MSW          ON UNIT   1018 AT TIME STEP      1, STRESS PERIOD    211

 HEAD WILL BE SAVED ON UNIT 1017 AT END OF TIME STEP    1, STRESS PERIOD  211


  VOLUME BUDGET FOR ENTIRE MODEL AT END OF TIME STEP    1, STRESS PERIOD 211
  ---------------------------------------------------------------------------------------------------

     CUMULATIVE VOLUME      L**3       RATES FOR THIS TIME STEP      L**3/T          PACKAGE NAME    
     ------------------                 ------------------------                     ----------------

           IN:                                      IN:
           ---                                      ---
              STO-SS =      213302.3350                STO-SS =         178.7413     STORAGE                          
                 DRN =           0.0000                   DRN =           0.0000     DRN_SYS1                         
                 RIV =      158432.2464                   RIV =        1197.0717     RIV_SYS1                         
                 RIV =           0.0000                   RIV =           0.0000     RIV_SYS2                         
                 RCH =      262968.9011                   RCH =         131.2481     RCH_MSW                          

            TOTAL IN =      634703.4825              TOTAL IN =        1507.0612

          OUT:                                     OUT:
          ----                                     ----
              STO-SS =       15744.1087                STO-SS =           0.0000     STORAGE                          
                 DRN =       12845.4244                   DRN =          18.2598     DRN_SYS1                         
                 RIV =      566174.9402                   RIV =        1379.0693     RIV_SYS1                         
                 RIV =       35790.8703                   RIV =          61.1843     RIV_SYS2                         
                 RCH =        4148.3097                   RCH =          48.5501     RCH_MSW                          

           TOTAL OUT =      634703.6533             TOTAL OUT =        1507.0634

            IN - OUT =          -0.1708              IN - OUT =      -2.2407E-03

 PERCENT DISCREPANCY =          -0.00     PERCENT DISCREPANCY =          -0.00




         TIME SUMMARY AT END OF TIME STEP    1 IN STRESS PERIOD  211
                    SECONDS     MINUTES      HOURS       DAYS        YEARS
                    -----------------------------------------------------------
   TIME STEP LENGTH  86400.      1440.0      24.000      1.0000     2.73785E-03
 STRESS PERIOD TIME  86400.      1440.0      24.000      1.0000     2.73785E-03
         TOTAL TIME 1.82304E+07 3.03840E+05  5064.0      211.00     0.57769    


end timestep


start timestep kper="212" kstp="1" mode="normal"

 #Stressperiod Save Options

 BEGIN READING OUTPUT CONTROL FOR STRESS PERIOD 212
      ALL TIME STEPS WILL BE SAVED
      ALL TIME STEPS WILL BE SAVED

 END READING OUTPUT CONTROL FOR STRESS PERIOD 212


 PROCESSING STORAGE PERIOD DATA
 END PROCESSING STORAGE PERIOD DATA


 STRESS PERIOD 212 IS TRANSIENT


 REUSING DRNS FROM LAST STRESS PERIOD

 REUSING RIVS FROM LAST STRESS PERIOD

 REUSING RIVS FROM LAST STRESS PERIOD

 REUSING RCHS FROM LAST STRESS PERIOD
 UBDSV06 SAVING              DRN IN MODEL GWF_1            PACKAGE GWF_1           CONNECTED TO MODEL GWF_1            PACKAGE DRN_SYS1         ON UNIT   1018 AT TIME STEP      1, STRESS PERIOD    212
 UBDSV06 SAVING              RIV IN MODEL GWF_1            PACKAGE GWF_1           CONNECTED TO MODEL GWF_1            PACKAGE RIV_SYS1         ON UNIT   1018 AT TIME STEP      1, STRESS PERIOD    212
 UBDSV06 SAVING              RIV IN MODEL GWF_1            PACKAGE GWF_1           CONNECTED TO MODEL GWF_1            PACKAGE RIV_SYS2         ON UNIT   1018 AT TIME STEP      1, STRESS PERIOD    212
 UBDSV06 SAVING              RCH IN MODEL GWF_1            PACKAGE GWF_1           CONNECTED TO MODEL GWF_1            PACKAGE RCH_MSW          ON UNIT   1018 AT TIME STEP      1, STRESS PERIOD    212

 HEAD WILL BE SAVED ON UNIT 1017 AT END OF TIME STEP    1, STRESS PERIOD  212


  VOLUME BUDGET FOR ENTIRE MODEL AT END OF TIME STEP    1, STRESS PERIOD 212
  ---------------------------------------------------------------------------------------------------

     CUMULATIVE VOLUME      L**3       RATES FOR THIS TIME STEP      L**3/T          PACKAGE NAME    
     ------------------                 ------------------------                     ----------------

           IN:                                      IN:
           ---                                      ---
              STO-SS =      213390.6340                STO-SS =          88.2989     STORAGE                          
                 DRN =           0.0000                   DRN =           0.0000     DRN_SYS1                         
                 RIV =      159631.6435                   RIV =        1199.3971     RIV_SYS1                         
                 RIV =           0.0000                   RIV =           0.0000     RIV_SYS2                         
                 RCH =      263187.5260                   RCH =         218.6249     RCH_MSW                          

            TOTAL IN =      636209.8035              TOTAL IN =        1506.3209

          OUT:                                     OUT:
          ----                                     ----
              STO-SS =       15744.5240                STO-SS =           0.4154     STORAGE                          
                 DRN =       12863.5815                   DRN =          18.1572     DRN_SYS1                         
                 RIV =      567551.2156                   RIV =        1376.2754     RIV_SYS1                         
                 RIV =       35851.8322                   RIV =          60.9618     RIV_SYS2                         
                 RCH =        4198.8266                   RCH =          50.5169     RCH_MSW                          

           TOTAL OUT =      636209.9800             TOTAL OUT =        1506.3267

            IN - OUT =          -0.1765              IN - OUT =      -5.7484E-03

 PERCENT DISCREPANCY =          -0.00     PERCENT DISCREPANCY =          -0.00




         TIME SUMMARY AT END OF TIME STEP    1 IN STRESS PERIOD  212
                    SECONDS     MINUTES      HOURS       DAYS        YEARS
                    -----------------------------------------------------------
   TIME STEP LENGTH  86400.      1440.0      24.000      1.0000     2.73785E-03
 STRESS PERIOD TIME  86400.      1440.0      24.000      1.0000     2.73785E-03
         TOTAL TIME 1.83168E+07 3.05280E+05  5088.0      212.00     0.58042    


end timestep


start timestep kper="213" kstp="1" mode="normal"

 #Stressperiod Save Options

 BEGIN READING OUTPUT CONTROL FOR STRESS PERIOD 213
      ALL TIME STEPS WILL BE SAVED
      ALL TIME STEPS WILL BE SAVED

 END READING OUTPUT CONTROL FOR STRESS PERIOD 213


 PROCESSING STORAGE PERIOD DATA
 END PROCESSING STORAGE PERIOD DATA


 STRESS PERIOD 213 IS TRANSIENT


 REUSING DRNS FROM LAST STRESS PERIOD

 REUSING RIVS FROM LAST STRESS PERIOD

 REUSING RIVS FROM LAST STRESS PERIOD

 REUSING RCHS FROM LAST STRESS PERIOD
 UBDSV06 SAVING              DRN IN MODEL GWF_1            PACKAGE GWF_1           CONNECTED TO MODEL GWF_1            PACKAGE DRN_SYS1         ON UNIT   1018 AT TIME STEP      1, STRESS PERIOD    213
 UBDSV06 SAVING              RIV IN MODEL GWF_1            PACKAGE GWF_1           CONNECTED TO MODEL GWF_1            PACKAGE RIV_SYS1         ON UNIT   1018 AT TIME STEP      1, STRESS PERIOD    213
 UBDSV06 SAVING              RIV IN MODEL GWF_1            PACKAGE GWF_1           CONNECTED TO MODEL GWF_1            PACKAGE RIV_SYS2         ON UNIT   1018 AT TIME STEP      1, STRESS PERIOD    213
 UBDSV06 SAVING              RCH IN MODEL GWF_1            PACKAGE GWF_1           CONNECTED TO MODEL GWF_1            PACKAGE RCH_MSW          ON UNIT   1018 AT TIME STEP      1, STRESS PERIOD    213

 HEAD WILL BE SAVED ON UNIT 1017 AT END OF TIME STEP    1, STRESS PERIOD  213


  VOLUME BUDGET FOR ENTIRE MODEL AT END OF TIME STEP    1, STRESS PERIOD 213
  ---------------------------------------------------------------------------------------------------

     CUMULATIVE VOLUME      L**3       RATES FOR THIS TIME STEP      L**3/T          PACKAGE NAME    
     ------------------                 ------------------------                     ----------------

           IN:                                      IN:
           ---                                      ---
              STO-SS =      213475.0330                STO-SS =          84.3990     STORAGE                          
                 DRN =           0.0000                   DRN =           0.0000     DRN_SYS1                         
                 RIV =      160832.9287                   RIV =        1201.2851     RIV_SYS1                         
                 RIV =           0.0000                   RIV =           0.0000     RIV_SYS2                         
                 RCH =      263404.1061                   RCH =         216.5801     RCH_MSW                          

            TOTAL IN =      637712.0678              TOTAL IN =        1502.2643

          OUT:                                     OUT:
          ----                                     ----
              STO-SS =       15744.5240                STO-SS =           0.0000     STORAGE                          
                 DRN =       12881.6325                   DRN =          18.0509     DRN_SYS1                         
                 RIV =      568924.8370                   RIV =        1373.6214     RIV_SYS1                         
                 RIV =       35912.5584                   RIV =          60.7263     RIV_SYS2                         
                 RCH =        4248.6940                   RCH =          49.8674     RCH_MSW                          

           TOTAL OUT =      637712.2460             TOTAL OUT =        1502.2660

            IN - OUT =          -0.1782              IN - OUT =      -1.6949E-03

 PERCENT DISCREPANCY =          -0.00     PERCENT DISCREPANCY =          -0.00




         TIME SUMMARY AT END OF TIME STEP    1 IN STRESS PERIOD  213
                    SECONDS     MINUTES      HOURS       DAYS        YEARS
                    -----------------------------------------------------------
   TIME STEP LENGTH  86400.      1440.0      24.000      1.0000     2.73785E-03
 STRESS PERIOD TIME  86400.      1440.0      24.000      1.0000     2.73785E-03
         TOTAL TIME 1.84032E+07 3.06720E+05  5112.0      213.00     0.58316    


end timestep


start timestep kper="214" kstp="1" mode="normal"

 #Stressperiod Save Options

 BEGIN READING OUTPUT CONTROL FOR STRESS PERIOD 214
      ALL TIME STEPS WILL BE SAVED
      ALL TIME STEPS WILL BE SAVED

 END READING OUTPUT CONTROL FOR STRESS PERIOD 214


 PROCESSING STORAGE PERIOD DATA
 END PROCESSING STORAGE PERIOD DATA


 STRESS PERIOD 214 IS TRANSIENT


 REUSING DRNS FROM LAST STRESS PERIOD

 REUSING RIVS FROM LAST STRESS PERIOD

 REUSING RIVS FROM LAST STRESS PERIOD

 REUSING RCHS FROM LAST STRESS PERIOD
 UBDSV06 SAVING              DRN IN MODEL GWF_1            PACKAGE GWF_1           CONNECTED TO MODEL GWF_1            PACKAGE DRN_SYS1         ON UNIT   1018 AT TIME STEP      1, STRESS PERIOD    214
 UBDSV06 SAVING              RIV IN MODEL GWF_1            PACKAGE GWF_1           CONNECTED TO MODEL GWF_1            PACKAGE RIV_SYS1         ON UNIT   1018 AT TIME STEP      1, STRESS PERIOD    214
 UBDSV06 SAVING              RIV IN MODEL GWF_1            PACKAGE GWF_1           CONNECTED TO MODEL GWF_1            PACKAGE RIV_SYS2         ON UNIT   1018 AT TIME STEP      1, STRESS PERIOD    214
 UBDSV06 SAVING              RCH IN MODEL GWF_1            PACKAGE GWF_1           CONNECTED TO MODEL GWF_1            PACKAGE RCH_MSW          ON UNIT   1018 AT TIME STEP      1, STRESS PERIOD    214

 HEAD WILL BE SAVED ON UNIT 1017 AT END OF TIME STEP    1, STRESS PERIOD  214


  VOLUME BUDGET FOR ENTIRE MODEL AT END OF TIME STEP    1, STRESS PERIOD 214
  ---------------------------------------------------------------------------------------------------

     CUMULATIVE VOLUME      L**3       RATES FOR THIS TIME STEP      L**3/T          PACKAGE NAME    
     ------------------                 ------------------------                     ----------------

           IN:                                      IN:
           ---                                      ---
              STO-SS =      213553.5472                STO-SS =          78.5142     STORAGE                          
                 DRN =           0.0000                   DRN =           0.0000     DRN_SYS1                         
                 RIV =      162035.6354                   RIV =        1202.7067     RIV_SYS1                         
                 RIV =           0.0000                   RIV =           0.0000     RIV_SYS2                         
                 RCH =      263621.3203                   RCH =         217.2142     RCH_MSW                          

            TOTAL IN =      639210.5029              TOTAL IN =        1498.4351

          OUT:                                     OUT:
          ----                                     ----
              STO-SS =       15744.5240                STO-SS =           0.0000     STORAGE                          
                 DRN =       12899.5752                   DRN =          17.9427     DRN_SYS1                         
                 RIV =      570295.9122                   RIV =        1371.0752     RIV_SYS1                         
                 RIV =       35973.0519                   RIV =          60.4934     RIV_SYS2                         
                 RCH =        4297.6186                   RCH =          48.9246     RCH_MSW                          

           TOTAL OUT =      639210.6819             TOTAL OUT =        1498.4359

            IN - OUT =          -0.1790              IN - OUT =      -8.2470E-04

 PERCENT DISCREPANCY =          -0.00     PERCENT DISCREPANCY =          -0.00




         TIME SUMMARY AT END OF TIME STEP    1 IN STRESS PERIOD  214
                    SECONDS     MINUTES      HOURS       DAYS        YEARS
                    -----------------------------------------------------------
   TIME STEP LENGTH  86400.      1440.0      24.000      1.0000     2.73785E-03
 STRESS PERIOD TIME  86400.      1440.0      24.000      1.0000     2.73785E-03
         TOTAL TIME 1.84896E+07 3.08160E+05  5136.0      214.00     0.58590    


end timestep


start timestep kper="215" kstp="1" mode="normal"

 #Stressperiod Save Options

 BEGIN READING OUTPUT CONTROL FOR STRESS PERIOD 215
      ALL TIME STEPS WILL BE SAVED
      ALL TIME STEPS WILL BE SAVED

 END READING OUTPUT CONTROL FOR STRESS PERIOD 215


 PROCESSING STORAGE PERIOD DATA
 END PROCESSING STORAGE PERIOD DATA


 STRESS PERIOD 215 IS TRANSIENT


 REUSING DRNS FROM LAST STRESS PERIOD

 REUSING RIVS FROM LAST STRESS PERIOD

 REUSING RIVS FROM LAST STRESS PERIOD

 REUSING RCHS FROM LAST STRESS PERIOD
 UBDSV06 SAVING              DRN IN MODEL GWF_1            PACKAGE GWF_1           CONNECTED TO MODEL GWF_1            PACKAGE DRN_SYS1         ON UNIT   1018 AT TIME STEP      1, STRESS PERIOD    215
 UBDSV06 SAVING              RIV IN MODEL GWF_1            PACKAGE GWF_1           CONNECTED TO MODEL GWF_1            PACKAGE RIV_SYS1         ON UNIT   1018 AT TIME STEP      1, STRESS PERIOD    215
 UBDSV06 SAVING              RIV IN MODEL GWF_1            PACKAGE GWF_1           CONNECTED TO MODEL GWF_1            PACKAGE RIV_SYS2         ON UNIT   1018 AT TIME STEP      1, STRESS PERIOD    215
 UBDSV06 SAVING              RCH IN MODEL GWF_1            PACKAGE GWF_1           CONNECTED TO MODEL GWF_1            PACKAGE RCH_MSW          ON UNIT   1018 AT TIME STEP      1, STRESS PERIOD    215

 HEAD WILL BE SAVED ON UNIT 1017 AT END OF TIME STEP    1, STRESS PERIOD  215


  VOLUME BUDGET FOR ENTIRE MODEL AT END OF TIME STEP    1, STRESS PERIOD 215
  ---------------------------------------------------------------------------------------------------

     CUMULATIVE VOLUME      L**3       RATES FOR THIS TIME STEP      L**3/T          PACKAGE NAME    
     ------------------                 ------------------------                     ----------------

           IN:                                      IN:
           ---                                      ---
              STO-SS =      213624.3096                STO-SS =          70.7624     STORAGE                          
                 DRN =           0.0000                   DRN =           0.0000     DRN_SYS1                         
                 RIV =      163239.4636                   RIV =        1203.8282     RIV_SYS1                         
                 RIV =           0.0000                   RIV =           0.0000     RIV_SYS2                         
                 RCH =      263842.6878                   RCH =         221.3674     RCH_MSW                          

            TOTAL IN =      640706.4610              TOTAL IN =        1495.9581

          OUT:                                     OUT:
          ----                                     ----
              STO-SS =       15744.6298                STO-SS =           0.1058     STORAGE                          
                 DRN =       12917.4104                   DRN =          17.8352     DRN_SYS1                         
                 RIV =      571665.6031                   RIV =        1369.6909     RIV_SYS1                         
                 RIV =       36033.3190                   RIV =          60.2671     RIV_SYS2                         
                 RCH =        4345.6796                   RCH =          48.0610     RCH_MSW                          

           TOTAL OUT =      640706.6419             TOTAL OUT =        1495.9600

            IN - OUT =          -0.1809              IN - OUT =      -1.8909E-03

 PERCENT DISCREPANCY =          -0.00     PERCENT DISCREPANCY =          -0.00




         TIME SUMMARY AT END OF TIME STEP    1 IN STRESS PERIOD  215
                    SECONDS     MINUTES      HOURS       DAYS        YEARS
                    -----------------------------------------------------------
   TIME STEP LENGTH  86400.      1440.0      24.000      1.0000     2.73785E-03
 STRESS PERIOD TIME  86400.      1440.0      24.000      1.0000     2.73785E-03
         TOTAL TIME 1.85760E+07 3.09600E+05  5160.0      215.00     0.58864    


end timestep


start timestep kper="216" kstp="1" mode="normal"

 #Stressperiod Save Options

 BEGIN READING OUTPUT CONTROL FOR STRESS PERIOD 216
      ALL TIME STEPS WILL BE SAVED
      ALL TIME STEPS WILL BE SAVED

 END READING OUTPUT CONTROL FOR STRESS PERIOD 216


 PROCESSING STORAGE PERIOD DATA
 END PROCESSING STORAGE PERIOD DATA


 STRESS PERIOD 216 IS TRANSIENT


 REUSING DRNS FROM LAST STRESS PERIOD

 REUSING RIVS FROM LAST STRESS PERIOD

 REUSING RIVS FROM LAST STRESS PERIOD

 REUSING RCHS FROM LAST STRESS PERIOD
 UBDSV06 SAVING              DRN IN MODEL GWF_1            PACKAGE GWF_1           CONNECTED TO MODEL GWF_1            PACKAGE DRN_SYS1         ON UNIT   1018 AT TIME STEP      1, STRESS PERIOD    216
 UBDSV06 SAVING              RIV IN MODEL GWF_1            PACKAGE GWF_1           CONNECTED TO MODEL GWF_1            PACKAGE RIV_SYS1         ON UNIT   1018 AT TIME STEP      1, STRESS PERIOD    216
 UBDSV06 SAVING              RIV IN MODEL GWF_1            PACKAGE GWF_1           CONNECTED TO MODEL GWF_1            PACKAGE RIV_SYS2         ON UNIT   1018 AT TIME STEP      1, STRESS PERIOD    216
 UBDSV06 SAVING              RCH IN MODEL GWF_1            PACKAGE GWF_1           CONNECTED TO MODEL GWF_1            PACKAGE RCH_MSW          ON UNIT   1018 AT TIME STEP      1, STRESS PERIOD    216

 HEAD WILL BE SAVED ON UNIT 1017 AT END OF TIME STEP    1, STRESS PERIOD  216


  VOLUME BUDGET FOR ENTIRE MODEL AT END OF TIME STEP    1, STRESS PERIOD 216
  ---------------------------------------------------------------------------------------------------

     CUMULATIVE VOLUME      L**3       RATES FOR THIS TIME STEP      L**3/T          PACKAGE NAME    
     ------------------                 ------------------------                     ----------------

           IN:                                      IN:
           ---                                      ---
              STO-SS =      213699.1369                STO-SS =          74.8273     STORAGE                          
                 DRN =           0.0000                   DRN =           0.0000     DRN_SYS1                         
                 RIV =      164444.3029                   RIV =        1204.8393     RIV_SYS1                         
                 RIV =           0.0000                   RIV =           0.0000     RIV_SYS2                         
                 RCH =      264055.1381                   RCH =         212.4503     RCH_MSW                          

            TOTAL IN =      642198.5779              TOTAL IN =        1492.1169

          OUT:                                     OUT:
          ----                                     ----
              STO-SS =       15744.6341                STO-SS =       4.2529E-03     STORAGE                          
                 DRN =       12935.1328                   DRN =          17.7224     DRN_SYS1                         
                 RIV =      573032.5379                   RIV =        1366.9348     RIV_SYS1                         
                 RIV =       36093.3589                   RIV =          60.0400     RIV_SYS2                         
                 RCH =        4393.0982                   RCH =          47.4186     RCH_MSW                          

           TOTAL OUT =      642198.7619             TOTAL OUT =        1492.1200

            IN - OUT =          -0.1840              IN - OUT =      -3.0655E-03

 PERCENT DISCREPANCY =          -0.00     PERCENT DISCREPANCY =          -0.00




         TIME SUMMARY AT END OF TIME STEP    1 IN STRESS PERIOD  216
                    SECONDS     MINUTES      HOURS       DAYS        YEARS
                    -----------------------------------------------------------
   TIME STEP LENGTH  86400.      1440.0      24.000      1.0000     2.73785E-03
 STRESS PERIOD TIME  86400.      1440.0      24.000      1.0000     2.73785E-03
         TOTAL TIME 1.86624E+07 3.11040E+05  5184.0      216.00     0.59138    


end timestep


start timestep kper="217" kstp="1" mode="normal"

 #Stressperiod Save Options

 BEGIN READING OUTPUT CONTROL FOR STRESS PERIOD 217
      ALL TIME STEPS WILL BE SAVED
      ALL TIME STEPS WILL BE SAVED

 END READING OUTPUT CONTROL FOR STRESS PERIOD 217


 PROCESSING STORAGE PERIOD DATA
 END PROCESSING STORAGE PERIOD DATA


 STRESS PERIOD 217 IS TRANSIENT


 REUSING DRNS FROM LAST STRESS PERIOD

 REUSING RIVS FROM LAST STRESS PERIOD

 REUSING RIVS FROM LAST STRESS PERIOD

 REUSING RCHS FROM LAST STRESS PERIOD
 UBDSV06 SAVING              DRN IN MODEL GWF_1            PACKAGE GWF_1           CONNECTED TO MODEL GWF_1            PACKAGE DRN_SYS1         ON UNIT   1018 AT TIME STEP      1, STRESS PERIOD    217
 UBDSV06 SAVING              RIV IN MODEL GWF_1            PACKAGE GWF_1           CONNECTED TO MODEL GWF_1            PACKAGE RIV_SYS1         ON UNIT   1018 AT TIME STEP      1, STRESS PERIOD    217
 UBDSV06 SAVING              RIV IN MODEL GWF_1            PACKAGE GWF_1           CONNECTED TO MODEL GWF_1            PACKAGE RIV_SYS2         ON UNIT   1018 AT TIME STEP      1, STRESS PERIOD    217
 UBDSV06 SAVING              RCH IN MODEL GWF_1            PACKAGE GWF_1           CONNECTED TO MODEL GWF_1            PACKAGE RCH_MSW          ON UNIT   1018 AT TIME STEP      1, STRESS PERIOD    217

 HEAD WILL BE SAVED ON UNIT 1017 AT END OF TIME STEP    1, STRESS PERIOD  217


  VOLUME BUDGET FOR ENTIRE MODEL AT END OF TIME STEP    1, STRESS PERIOD 217
  ---------------------------------------------------------------------------------------------------

     CUMULATIVE VOLUME      L**3       RATES FOR THIS TIME STEP      L**3/T          PACKAGE NAME    
     ------------------                 ------------------------                     ----------------

           IN:                                      IN:
           ---                                      ---
              STO-SS =      213806.7297                STO-SS =         107.5927     STORAGE                          
                 DRN =           0.0000                   DRN =           0.0000     DRN_SYS1                         
                 RIV =      165651.0458                   RIV =        1206.7430     RIV_SYS1                         
                 RIV =           0.0000                   RIV =           0.0000     RIV_SYS2                         
                 RCH =      264228.4862                   RCH =         173.3481     RCH_MSW                          

            TOTAL IN =      643686.2617              TOTAL IN =        1487.6838

          OUT:                                     OUT:
          ----                                     ----
              STO-SS =       15744.6341                STO-SS =           0.0000     STORAGE                          
                 DRN =       12952.7167                   DRN =          17.5839     DRN_SYS1                         
                 RIV =      574395.4074                   RIV =        1362.8695     RIV_SYS1                         
                 RIV =       36153.0381                   RIV =          59.6792     RIV_SYS2                         
                 RCH =        4440.6533                   RCH =          47.5550     RCH_MSW                          

           TOTAL OUT =      643686.4495             TOTAL OUT =        1487.6876

            IN - OUT =          -0.1878              IN - OUT =      -3.8030E-03

 PERCENT DISCREPANCY =          -0.00     PERCENT DISCREPANCY =          -0.00




         TIME SUMMARY AT END OF TIME STEP    1 IN STRESS PERIOD  217
                    SECONDS     MINUTES      HOURS       DAYS        YEARS
                    -----------------------------------------------------------
   TIME STEP LENGTH  86400.      1440.0      24.000      1.0000     2.73785E-03
 STRESS PERIOD TIME  86400.      1440.0      24.000      1.0000     2.73785E-03
         TOTAL TIME 1.87488E+07 3.12480E+05  5208.0      217.00     0.59411    


end timestep


start timestep kper="218" kstp="1" mode="normal"

 #Stressperiod Save Options

 BEGIN READING OUTPUT CONTROL FOR STRESS PERIOD 218
      ALL TIME STEPS WILL BE SAVED
      ALL TIME STEPS WILL BE SAVED

 END READING OUTPUT CONTROL FOR STRESS PERIOD 218


 PROCESSING STORAGE PERIOD DATA
 END PROCESSING STORAGE PERIOD DATA


 STRESS PERIOD 218 IS TRANSIENT


 REUSING DRNS FROM LAST STRESS PERIOD

 REUSING RIVS FROM LAST STRESS PERIOD

 REUSING RIVS FROM LAST STRESS PERIOD

 REUSING RCHS FROM LAST STRESS PERIOD
 UBDSV06 SAVING              DRN IN MODEL GWF_1            PACKAGE GWF_1           CONNECTED TO MODEL GWF_1            PACKAGE DRN_SYS1         ON UNIT   1018 AT TIME STEP      1, STRESS PERIOD    218
 UBDSV06 SAVING              RIV IN MODEL GWF_1            PACKAGE GWF_1           CONNECTED TO MODEL GWF_1            PACKAGE RIV_SYS1         ON UNIT   1018 AT TIME STEP      1, STRESS PERIOD    218
 UBDSV06 SAVING              RIV IN MODEL GWF_1            PACKAGE GWF_1           CONNECTED TO MODEL GWF_1            PACKAGE RIV_SYS2         ON UNIT   1018 AT TIME STEP      1, STRESS PERIOD    218
 UBDSV06 SAVING              RCH IN MODEL GWF_1            PACKAGE GWF_1           CONNECTED TO MODEL GWF_1            PACKAGE RCH_MSW          ON UNIT   1018 AT TIME STEP      1, STRESS PERIOD    218

 HEAD WILL BE SAVED ON UNIT 1017 AT END OF TIME STEP    1, STRESS PERIOD  218


  VOLUME BUDGET FOR ENTIRE MODEL AT END OF TIME STEP    1, STRESS PERIOD 218
  ---------------------------------------------------------------------------------------------------

     CUMULATIVE VOLUME      L**3       RATES FOR THIS TIME STEP      L**3/T          PACKAGE NAME    
     ------------------                 ------------------------                     ----------------

           IN:                                      IN:
           ---                                      ---
              STO-SS =      213973.2774                STO-SS =         166.5477     STORAGE                          
                 DRN =           0.0000                   DRN =           0.0000     DRN_SYS1                         
                 RIV =      166860.0332                   RIV =        1208.9873     RIV_SYS1                         
                 RIV =           0.0000                   RIV =           0.0000     RIV_SYS2                         
                 RCH =      264336.4002                   RCH =         107.9140     RCH_MSW                          

            TOTAL IN =      645169.7108              TOTAL IN =        1483.4491

          OUT:                                     OUT:
          ----                                     ----
              STO-SS =       15744.6341                STO-SS =           0.0000     STORAGE                          
                 DRN =       12970.0728                   DRN =          17.3561     DRN_SYS1                         
                 RIV =      575754.5663                   RIV =        1359.1589     RIV_SYS1                         
                 RIV =       36212.1285                   RIV =          59.0905     RIV_SYS2                         
                 RCH =        4488.5093                   RCH =          47.8561     RCH_MSW                          

           TOTAL OUT =      645169.9111             TOTAL OUT =        1483.4616

            IN - OUT =          -0.2003              IN - OUT =      -1.2542E-02

 PERCENT DISCREPANCY =          -0.00     PERCENT DISCREPANCY =          -0.00




         TIME SUMMARY AT END OF TIME STEP    1 IN STRESS PERIOD  218
                    SECONDS     MINUTES      HOURS       DAYS        YEARS
                    -----------------------------------------------------------
   TIME STEP LENGTH  86400.      1440.0      24.000      1.0000     2.73785E-03
 STRESS PERIOD TIME  86400.      1440.0      24.000      1.0000     2.73785E-03
         TOTAL TIME 1.88352E+07 3.13920E+05  5232.0      218.00     0.59685    


end timestep


start timestep kper="219" kstp="1" mode="normal"

 #Stressperiod Save Options

 BEGIN READING OUTPUT CONTROL FOR STRESS PERIOD 219
      ALL TIME STEPS WILL BE SAVED
      ALL TIME STEPS WILL BE SAVED

 END READING OUTPUT CONTROL FOR STRESS PERIOD 219


 PROCESSING STORAGE PERIOD DATA
 END PROCESSING STORAGE PERIOD DATA


 STRESS PERIOD 219 IS TRANSIENT


 REUSING DRNS FROM LAST STRESS PERIOD

 REUSING RIVS FROM LAST STRESS PERIOD

 REUSING RIVS FROM LAST STRESS PERIOD

 REUSING RCHS FROM LAST STRESS PERIOD
 UBDSV06 SAVING              DRN IN MODEL GWF_1            PACKAGE GWF_1           CONNECTED TO MODEL GWF_1            PACKAGE DRN_SYS1         ON UNIT   1018 AT TIME STEP      1, STRESS PERIOD    219
 UBDSV06 SAVING              RIV IN MODEL GWF_1            PACKAGE GWF_1           CONNECTED TO MODEL GWF_1            PACKAGE RIV_SYS1         ON UNIT   1018 AT TIME STEP      1, STRESS PERIOD    219
 UBDSV06 SAVING              RIV IN MODEL GWF_1            PACKAGE GWF_1           CONNECTED TO MODEL GWF_1            PACKAGE RIV_SYS2         ON UNIT   1018 AT TIME STEP      1, STRESS PERIOD    219
 UBDSV06 SAVING              RCH IN MODEL GWF_1            PACKAGE GWF_1           CONNECTED TO MODEL GWF_1            PACKAGE RCH_MSW          ON UNIT   1018 AT TIME STEP      1, STRESS PERIOD    219

 HEAD WILL BE SAVED ON UNIT 1017 AT END OF TIME STEP    1, STRESS PERIOD  219


  VOLUME BUDGET FOR ENTIRE MODEL AT END OF TIME STEP    1, STRESS PERIOD 219
  ---------------------------------------------------------------------------------------------------

     CUMULATIVE VOLUME      L**3       RATES FOR THIS TIME STEP      L**3/T          PACKAGE NAME    
     ------------------                 ------------------------                     ----------------

           IN:                                      IN:
           ---                                      ---
              STO-SS =      214135.8426                STO-SS =         162.5652     STORAGE                          
                 DRN =           0.0000                   DRN =           0.0000     DRN_SYS1                         
                 RIV =      168071.4712                   RIV =        1211.4380     RIV_SYS1                         
                 RIV =           0.0000                   RIV =           0.0000     RIV_SYS2                         
                 RCH =      264442.0486                   RCH =         105.6484     RCH_MSW                          

            TOTAL IN =      646649.3623              TOTAL IN =        1479.6516

          OUT:                                     OUT:
          ----                                     ----
              STO-SS =       15744.6341                STO-SS =           0.0000     STORAGE                          
                 DRN =       12987.2209                   DRN =          17.1481     DRN_SYS1                         
                 RIV =      577110.0361                   RIV =        1355.4698     RIV_SYS1                         
                 RIV =       36270.6771                   RIV =          58.5486     RIV_SYS2                         
                 RCH =        4536.9944                   RCH =          48.4850     RCH_MSW                          

           TOTAL OUT =      646649.5626             TOTAL OUT =        1479.6515

            IN - OUT =          -0.2003              IN - OUT =       3.3078E-05

 PERCENT DISCREPANCY =          -0.00     PERCENT DISCREPANCY =           0.00




         TIME SUMMARY AT END OF TIME STEP    1 IN STRESS PERIOD  219
                    SECONDS     MINUTES      HOURS       DAYS        YEARS
                    -----------------------------------------------------------
   TIME STEP LENGTH  86400.      1440.0      24.000      1.0000     2.73785E-03
 STRESS PERIOD TIME  86400.      1440.0      24.000      1.0000     2.73785E-03
         TOTAL TIME 1.89216E+07 3.15360E+05  5256.0      219.00     0.59959    


end timestep


start timestep kper="220" kstp="1" mode="normal"

 #Stressperiod Save Options

 BEGIN READING OUTPUT CONTROL FOR STRESS PERIOD 220
      ALL TIME STEPS WILL BE SAVED
      ALL TIME STEPS WILL BE SAVED

 END READING OUTPUT CONTROL FOR STRESS PERIOD 220


 PROCESSING STORAGE PERIOD DATA
 END PROCESSING STORAGE PERIOD DATA


 STRESS PERIOD 220 IS TRANSIENT


 REUSING DRNS FROM LAST STRESS PERIOD

 REUSING RIVS FROM LAST STRESS PERIOD

 REUSING RIVS FROM LAST STRESS PERIOD

 REUSING RCHS FROM LAST STRESS PERIOD
 UBDSV06 SAVING              DRN IN MODEL GWF_1            PACKAGE GWF_1           CONNECTED TO MODEL GWF_1            PACKAGE DRN_SYS1         ON UNIT   1018 AT TIME STEP      1, STRESS PERIOD    220
 UBDSV06 SAVING              RIV IN MODEL GWF_1            PACKAGE GWF_1           CONNECTED TO MODEL GWF_1            PACKAGE RIV_SYS1         ON UNIT   1018 AT TIME STEP      1, STRESS PERIOD    220
 UBDSV06 SAVING              RIV IN MODEL GWF_1            PACKAGE GWF_1           CONNECTED TO MODEL GWF_1            PACKAGE RIV_SYS2         ON UNIT   1018 AT TIME STEP      1, STRESS PERIOD    220
 UBDSV06 SAVING              RCH IN MODEL GWF_1            PACKAGE GWF_1           CONNECTED TO MODEL GWF_1            PACKAGE RCH_MSW          ON UNIT   1018 AT TIME STEP      1, STRESS PERIOD    220

 HEAD WILL BE SAVED ON UNIT 1017 AT END OF TIME STEP    1, STRESS PERIOD  220


  VOLUME BUDGET FOR ENTIRE MODEL AT END OF TIME STEP    1, STRESS PERIOD 220
  ---------------------------------------------------------------------------------------------------

     CUMULATIVE VOLUME      L**3       RATES FOR THIS TIME STEP      L**3/T          PACKAGE NAME    
     ------------------                 ------------------------                     ----------------

           IN:                                      IN:
           ---                                      ---
              STO-SS =      214294.8204                STO-SS =         158.9778     STORAGE                          
                 DRN =           0.0000                   DRN =           0.0000     DRN_SYS1                         
                 RIV =      169285.4701                   RIV =        1213.9989     RIV_SYS1                         
                 RIV =           0.0000                   RIV =           0.0000     RIV_SYS2                         
                 RCH =      264545.2995                   RCH =         103.2510     RCH_MSW                          

            TOTAL IN =      648125.5900              TOTAL IN =        1476.2277

          OUT:                                     OUT:
          ----                                     ----
              STO-SS =       15744.6341                STO-SS =           0.0000     STORAGE                          
                 DRN =       13004.1735                   DRN =          16.9526     DRN_SYS1                         
                 RIV =      578461.7756                   RIV =        1351.7395     RIV_SYS1                         
                 RIV =       36328.7193                   RIV =          58.0422     RIV_SYS2                         
                 RCH =        4586.4876                   RCH =          49.4932     RCH_MSW                          

           TOTAL OUT =      648125.7901             TOTAL OUT =        1476.2275

            IN - OUT =          -0.2001              IN - OUT =       2.0506E-04

 PERCENT DISCREPANCY =          -0.00     PERCENT DISCREPANCY =           0.00




         TIME SUMMARY AT END OF TIME STEP    1 IN STRESS PERIOD  220
                    SECONDS     MINUTES      HOURS       DAYS        YEARS
                    -----------------------------------------------------------
   TIME STEP LENGTH  86400.      1440.0      24.000      1.0000     2.73785E-03
 STRESS PERIOD TIME  86400.      1440.0      24.000      1.0000     2.73785E-03
         TOTAL TIME 1.90080E+07 3.16800E+05  5280.0      220.00     0.60233    


end timestep


start timestep kper="221" kstp="1" mode="normal"

 #Stressperiod Save Options

 BEGIN READING OUTPUT CONTROL FOR STRESS PERIOD 221
      ALL TIME STEPS WILL BE SAVED
      ALL TIME STEPS WILL BE SAVED

 END READING OUTPUT CONTROL FOR STRESS PERIOD 221


 PROCESSING STORAGE PERIOD DATA
 END PROCESSING STORAGE PERIOD DATA


 STRESS PERIOD 221 IS TRANSIENT


 REUSING DRNS FROM LAST STRESS PERIOD

 REUSING RIVS FROM LAST STRESS PERIOD

 REUSING RIVS FROM LAST STRESS PERIOD

 REUSING RCHS FROM LAST STRESS PERIOD
 UBDSV06 SAVING              DRN IN MODEL GWF_1            PACKAGE GWF_1           CONNECTED TO MODEL GWF_1            PACKAGE DRN_SYS1         ON UNIT   1018 AT TIME STEP      1, STRESS PERIOD    221
 UBDSV06 SAVING              RIV IN MODEL GWF_1            PACKAGE GWF_1           CONNECTED TO MODEL GWF_1            PACKAGE RIV_SYS1         ON UNIT   1018 AT TIME STEP      1, STRESS PERIOD    221
 UBDSV06 SAVING              RIV IN MODEL GWF_1            PACKAGE GWF_1           CONNECTED TO MODEL GWF_1            PACKAGE RIV_SYS2         ON UNIT   1018 AT TIME STEP      1, STRESS PERIOD    221
 UBDSV06 SAVING              RCH IN MODEL GWF_1            PACKAGE GWF_1           CONNECTED TO MODEL GWF_1            PACKAGE RCH_MSW          ON UNIT   1018 AT TIME STEP      1, STRESS PERIOD    221

 HEAD WILL BE SAVED ON UNIT 1017 AT END OF TIME STEP    1, STRESS PERIOD  221


  VOLUME BUDGET FOR ENTIRE MODEL AT END OF TIME STEP    1, STRESS PERIOD 221
  ---------------------------------------------------------------------------------------------------

     CUMULATIVE VOLUME      L**3       RATES FOR THIS TIME STEP      L**3/T          PACKAGE NAME    
     ------------------                 ------------------------                     ----------------

           IN:                                      IN:
           ---                                      ---
              STO-SS =      214450.5284                STO-SS =         155.7080     STORAGE                          
                 DRN =           0.0000                   DRN =           0.0000     DRN_SYS1                         
                 RIV =      170502.0750                   RIV =        1216.6049     RIV_SYS1                         
                 RIV =           0.0000                   RIV =           0.0000     RIV_SYS2                         
                 RCH =      264646.0884                   RCH =         100.7889     RCH_MSW                          

            TOTAL IN =      649598.6918              TOTAL IN =        1473.1018

          OUT:                                     OUT:
          ----                                     ----
              STO-SS =       15744.6341                STO-SS =           0.0000     STORAGE                          
                 DRN =       13020.9392                   DRN =          16.7658     DRN_SYS1                         
                 RIV =      579809.7577                   RIV =        1347.9821     RIV_SYS1                         
                 RIV =       36386.2808                   RIV =          57.5615     RIV_SYS2                         
                 RCH =        4637.2838                   RCH =          50.7962     RCH_MSW                          

           TOTAL OUT =      649598.8957             TOTAL OUT =        1473.1056

            IN - OUT =          -0.2039              IN - OUT =      -3.8342E-03

 PERCENT DISCREPANCY =          -0.00     PERCENT DISCREPANCY =          -0.00




         TIME SUMMARY AT END OF TIME STEP    1 IN STRESS PERIOD  221
                    SECONDS     MINUTES      HOURS       DAYS        YEARS
                    -----------------------------------------------------------
   TIME STEP LENGTH  86400.      1440.0      24.000      1.0000     2.73785E-03
 STRESS PERIOD TIME  86400.      1440.0      24.000      1.0000     2.73785E-03
         TOTAL TIME 1.90944E+07 3.18240E+05  5304.0      221.00     0.60507    


end timestep


start timestep kper="222" kstp="1" mode="normal"

 #Stressperiod Save Options

 BEGIN READING OUTPUT CONTROL FOR STRESS PERIOD 222
      ALL TIME STEPS WILL BE SAVED
      ALL TIME STEPS WILL BE SAVED

 END READING OUTPUT CONTROL FOR STRESS PERIOD 222


 PROCESSING STORAGE PERIOD DATA
 END PROCESSING STORAGE PERIOD DATA


 STRESS PERIOD 222 IS TRANSIENT


 REUSING DRNS FROM LAST STRESS PERIOD

 REUSING RIVS FROM LAST STRESS PERIOD

 REUSING RIVS FROM LAST STRESS PERIOD

 REUSING RCHS FROM LAST STRESS PERIOD
 UBDSV06 SAVING              DRN IN MODEL GWF_1            PACKAGE GWF_1           CONNECTED TO MODEL GWF_1            PACKAGE DRN_SYS1         ON UNIT   1018 AT TIME STEP      1, STRESS PERIOD    222
 UBDSV06 SAVING              RIV IN MODEL GWF_1            PACKAGE GWF_1           CONNECTED TO MODEL GWF_1            PACKAGE RIV_SYS1         ON UNIT   1018 AT TIME STEP      1, STRESS PERIOD    222
 UBDSV06 SAVING              RIV IN MODEL GWF_1            PACKAGE GWF_1           CONNECTED TO MODEL GWF_1            PACKAGE RIV_SYS2         ON UNIT   1018 AT TIME STEP      1, STRESS PERIOD    222
 UBDSV06 SAVING              RCH IN MODEL GWF_1            PACKAGE GWF_1           CONNECTED TO MODEL GWF_1            PACKAGE RCH_MSW          ON UNIT   1018 AT TIME STEP      1, STRESS PERIOD    222

 HEAD WILL BE SAVED ON UNIT 1017 AT END OF TIME STEP    1, STRESS PERIOD  222


  VOLUME BUDGET FOR ENTIRE MODEL AT END OF TIME STEP    1, STRESS PERIOD 222
  ---------------------------------------------------------------------------------------------------

     CUMULATIVE VOLUME      L**3       RATES FOR THIS TIME STEP      L**3/T          PACKAGE NAME    
     ------------------                 ------------------------                     ----------------

           IN:                                      IN:
           ---                                      ---
              STO-SS =      214602.9309                STO-SS =         152.4026     STORAGE                          
                 DRN =           0.0000                   DRN =           0.0000     DRN_SYS1                         
                 RIV =      171721.2923                   RIV =        1219.2172     RIV_SYS1                         
                 RIV =           0.0000                   RIV =           0.0000     RIV_SYS2                         
                 RCH =      264744.4462                   RCH =          98.3578     RCH_MSW                          

            TOTAL IN =      651068.6694              TOTAL IN =        1469.9776

          OUT:                                     OUT:
          ----                                     ----
              STO-SS =       15744.6341                STO-SS =           0.0000     STORAGE                          
                 DRN =       13037.5232                   DRN =          16.5840     DRN_SYS1                         
                 RIV =      581153.9754                   RIV =        1344.2177     RIV_SYS1                         
                 RIV =       36443.3778                   RIV =          57.0969     RIV_SYS2                         
                 RCH =        4689.3665                   RCH =          52.0826     RCH_MSW                          

           TOTAL OUT =      651068.8770             TOTAL OUT =        1469.9812

            IN - OUT =          -0.2076              IN - OUT =      -3.6266E-03

 PERCENT DISCREPANCY =          -0.00     PERCENT DISCREPANCY =          -0.00




         TIME SUMMARY AT END OF TIME STEP    1 IN STRESS PERIOD  222
                    SECONDS     MINUTES      HOURS       DAYS        YEARS
                    -----------------------------------------------------------
   TIME STEP LENGTH  86400.      1440.0      24.000      1.0000     2.73785E-03
 STRESS PERIOD TIME  86400.      1440.0      24.000      1.0000     2.73785E-03
         TOTAL TIME 1.91808E+07 3.19680E+05  5328.0      222.00     0.60780    


end timestep


start timestep kper="223" kstp="1" mode="normal"

 #Stressperiod Save Options

 BEGIN READING OUTPUT CONTROL FOR STRESS PERIOD 223
      ALL TIME STEPS WILL BE SAVED
      ALL TIME STEPS WILL BE SAVED

 END READING OUTPUT CONTROL FOR STRESS PERIOD 223


 PROCESSING STORAGE PERIOD DATA
 END PROCESSING STORAGE PERIOD DATA


 STRESS PERIOD 223 IS TRANSIENT


 REUSING DRNS FROM LAST STRESS PERIOD

 REUSING RIVS FROM LAST STRESS PERIOD

 REUSING RIVS FROM LAST STRESS PERIOD

 REUSING RCHS FROM LAST STRESS PERIOD
 UBDSV06 SAVING              DRN IN MODEL GWF_1            PACKAGE GWF_1           CONNECTED TO MODEL GWF_1            PACKAGE DRN_SYS1         ON UNIT   1018 AT TIME STEP      1, STRESS PERIOD    223
 UBDSV06 SAVING              RIV IN MODEL GWF_1            PACKAGE GWF_1           CONNECTED TO MODEL GWF_1            PACKAGE RIV_SYS1         ON UNIT   1018 AT TIME STEP      1, STRESS PERIOD    223
 UBDSV06 SAVING              RIV IN MODEL GWF_1            PACKAGE GWF_1           CONNECTED TO MODEL GWF_1            PACKAGE RIV_SYS2         ON UNIT   1018 AT TIME STEP      1, STRESS PERIOD    223
 UBDSV06 SAVING              RCH IN MODEL GWF_1            PACKAGE GWF_1           CONNECTED TO MODEL GWF_1            PACKAGE RCH_MSW          ON UNIT   1018 AT TIME STEP      1, STRESS PERIOD    223

 HEAD WILL BE SAVED ON UNIT 1017 AT END OF TIME STEP    1, STRESS PERIOD  223


  VOLUME BUDGET FOR ENTIRE MODEL AT END OF TIME STEP    1, STRESS PERIOD 223
  ---------------------------------------------------------------------------------------------------

     CUMULATIVE VOLUME      L**3       RATES FOR THIS TIME STEP      L**3/T          PACKAGE NAME    
     ------------------                 ------------------------                     ----------------

           IN:                                      IN:
           ---                                      ---
              STO-SS =      214752.0345                STO-SS =         149.1036     STORAGE                          
                 DRN =           0.0000                   DRN =           0.0000     DRN_SYS1                         
                 RIV =      172943.0932                   RIV =        1221.8010     RIV_SYS1                         
                 RIV =           0.0000                   RIV =           0.0000     RIV_SYS2                         
                 RCH =      264840.4356                   RCH =          95.9894     RCH_MSW                          

            TOTAL IN =      652535.5634              TOTAL IN =        1466.8940

          OUT:                                     OUT:
          ----                                     ----
              STO-SS =       15744.6341                STO-SS =           0.0000     STORAGE                          
                 DRN =       13053.9297                   DRN =          16.4065     DRN_SYS1                         
                 RIV =      582494.4518                   RIV =        1340.4764     RIV_SYS1                         
                 RIV =       36500.0234                   RIV =          56.6456     RIV_SYS2                         
                 RCH =        4742.7350                   RCH =          53.3685     RCH_MSW                          

           TOTAL OUT =      652535.7740             TOTAL OUT =        1466.8970

            IN - OUT =          -0.2106              IN - OUT =      -3.0283E-03

 PERCENT DISCREPANCY =          -0.00     PERCENT DISCREPANCY =          -0.00




         TIME SUMMARY AT END OF TIME STEP    1 IN STRESS PERIOD  223
                    SECONDS     MINUTES      HOURS       DAYS        YEARS
                    -----------------------------------------------------------
   TIME STEP LENGTH  86400.      1440.0      24.000      1.0000     2.73785E-03
 STRESS PERIOD TIME  86400.      1440.0      24.000      1.0000     2.73785E-03
         TOTAL TIME 1.92672E+07 3.21120E+05  5352.0      223.00     0.61054    


end timestep


start timestep kper="224" kstp="1" mode="normal"

 #Stressperiod Save Options

 BEGIN READING OUTPUT CONTROL FOR STRESS PERIOD 224
      ALL TIME STEPS WILL BE SAVED
      ALL TIME STEPS WILL BE SAVED

 END READING OUTPUT CONTROL FOR STRESS PERIOD 224


 PROCESSING STORAGE PERIOD DATA
 END PROCESSING STORAGE PERIOD DATA


 STRESS PERIOD 224 IS TRANSIENT


 REUSING DRNS FROM LAST STRESS PERIOD

 REUSING RIVS FROM LAST STRESS PERIOD

 REUSING RIVS FROM LAST STRESS PERIOD

 REUSING RCHS FROM LAST STRESS PERIOD
 UBDSV06 SAVING              DRN IN MODEL GWF_1            PACKAGE GWF_1           CONNECTED TO MODEL GWF_1            PACKAGE DRN_SYS1         ON UNIT   1018 AT TIME STEP      1, STRESS PERIOD    224
 UBDSV06 SAVING              RIV IN MODEL GWF_1            PACKAGE GWF_1           CONNECTED TO MODEL GWF_1            PACKAGE RIV_SYS1         ON UNIT   1018 AT TIME STEP      1, STRESS PERIOD    224
 UBDSV06 SAVING              RIV IN MODEL GWF_1            PACKAGE GWF_1           CONNECTED TO MODEL GWF_1            PACKAGE RIV_SYS2         ON UNIT   1018 AT TIME STEP      1, STRESS PERIOD    224
 UBDSV06 SAVING              RCH IN MODEL GWF_1            PACKAGE GWF_1           CONNECTED TO MODEL GWF_1            PACKAGE RCH_MSW          ON UNIT   1018 AT TIME STEP      1, STRESS PERIOD    224

 HEAD WILL BE SAVED ON UNIT 1017 AT END OF TIME STEP    1, STRESS PERIOD  224


  VOLUME BUDGET FOR ENTIRE MODEL AT END OF TIME STEP    1, STRESS PERIOD 224
  ---------------------------------------------------------------------------------------------------

     CUMULATIVE VOLUME      L**3       RATES FOR THIS TIME STEP      L**3/T          PACKAGE NAME    
     ------------------                 ------------------------                     ----------------

           IN:                                      IN:
           ---                                      ---
              STO-SS =      214803.9023                STO-SS =          51.8678     STORAGE                          
                 DRN =           0.0000                   DRN =           0.0000     DRN_SYS1                         
                 RIV =      174166.6323                   RIV =        1223.5391     RIV_SYS1                         
                 RIV =           0.0000                   RIV =           0.0000     RIV_SYS2                         
                 RCH =      265034.8566                   RCH =         194.4209     RCH_MSW                          

            TOTAL IN =      654005.3912              TOTAL IN =        1469.8278

          OUT:                                     OUT:
          ----                                     ----
              STO-SS =       15749.3368                STO-SS =           4.7027     STORAGE                          
                 DRN =       13070.2855                   DRN =          16.3558     DRN_SYS1                         
                 RIV =      583832.0240                   RIV =        1337.5722     RIV_SYS1                         
                 RIV =       36556.6176                   RIV =          56.5942     RIV_SYS2                         
                 RCH =        4797.3489                   RCH =          54.6139     RCH_MSW                          

           TOTAL OUT =      654005.6127             TOTAL OUT =        1469.8387

            IN - OUT =          -0.2215              IN - OUT =      -1.0886E-02

 PERCENT DISCREPANCY =          -0.00     PERCENT DISCREPANCY =          -0.00




         TIME SUMMARY AT END OF TIME STEP    1 IN STRESS PERIOD  224
                    SECONDS     MINUTES      HOURS       DAYS        YEARS
                    -----------------------------------------------------------
   TIME STEP LENGTH  86400.      1440.0      24.000      1.0000     2.73785E-03
 STRESS PERIOD TIME  86400.      1440.0      24.000      1.0000     2.73785E-03
         TOTAL TIME 1.93536E+07 3.22560E+05  5376.0      224.00     0.61328    


end timestep


start timestep kper="225" kstp="1" mode="normal"

 #Stressperiod Save Options

 BEGIN READING OUTPUT CONTROL FOR STRESS PERIOD 225
      ALL TIME STEPS WILL BE SAVED
      ALL TIME STEPS WILL BE SAVED

 END READING OUTPUT CONTROL FOR STRESS PERIOD 225


 PROCESSING STORAGE PERIOD DATA
 END PROCESSING STORAGE PERIOD DATA


 STRESS PERIOD 225 IS TRANSIENT


 REUSING DRNS FROM LAST STRESS PERIOD

 REUSING RIVS FROM LAST STRESS PERIOD

 REUSING RIVS FROM LAST STRESS PERIOD

 REUSING RCHS FROM LAST STRESS PERIOD
 UBDSV06 SAVING              DRN IN MODEL GWF_1            PACKAGE GWF_1           CONNECTED TO MODEL GWF_1            PACKAGE DRN_SYS1         ON UNIT   1018 AT TIME STEP      1, STRESS PERIOD    225
 UBDSV06 SAVING              RIV IN MODEL GWF_1            PACKAGE GWF_1           CONNECTED TO MODEL GWF_1            PACKAGE RIV_SYS1         ON UNIT   1018 AT TIME STEP      1, STRESS PERIOD    225
 UBDSV06 SAVING              RIV IN MODEL GWF_1            PACKAGE GWF_1           CONNECTED TO MODEL GWF_1            PACKAGE RIV_SYS2         ON UNIT   1018 AT TIME STEP      1, STRESS PERIOD    225
 UBDSV06 SAVING              RCH IN MODEL GWF_1            PACKAGE GWF_1           CONNECTED TO MODEL GWF_1            PACKAGE RCH_MSW          ON UNIT   1018 AT TIME STEP      1, STRESS PERIOD    225

 HEAD WILL BE SAVED ON UNIT 1017 AT END OF TIME STEP    1, STRESS PERIOD  225


  VOLUME BUDGET FOR ENTIRE MODEL AT END OF TIME STEP    1, STRESS PERIOD 225
  ---------------------------------------------------------------------------------------------------

     CUMULATIVE VOLUME      L**3       RATES FOR THIS TIME STEP      L**3/T          PACKAGE NAME    
     ------------------                 ------------------------                     ----------------

           IN:                                      IN:
           ---                                      ---
              STO-SS =      214950.5326                STO-SS =         146.6303     STORAGE                          
                 DRN =           0.0000                   DRN =           0.0000     DRN_SYS1                         
                 RIV =      175392.3430                   RIV =        1225.7106     RIV_SYS1                         
                 RIV =           0.0000                   RIV =           0.0000     RIV_SYS2                         
                 RCH =      265125.1646                   RCH =          90.3080     RCH_MSW                          

            TOTAL IN =      655468.0401              TOTAL IN =        1462.6489

          OUT:                                     OUT:
          ----                                     ----
              STO-SS =       15749.3368                STO-SS =           0.0000     STORAGE                          
                 DRN =       13086.4622                   DRN =          16.1767     DRN_SYS1                         
                 RIV =      585166.4403                   RIV =        1334.4164     RIV_SYS1                         
                 RIV =       36612.7283                   RIV =          56.1107     RIV_SYS2                         
                 RCH =        4853.3000                   RCH =          55.9511     RCH_MSW                          

           TOTAL OUT =      655468.2676             TOTAL OUT =        1462.6549

            IN - OUT =          -0.2275              IN - OUT =      -6.0162E-03

 PERCENT DISCREPANCY =          -0.00     PERCENT DISCREPANCY =          -0.00




         TIME SUMMARY AT END OF TIME STEP    1 IN STRESS PERIOD  225
                    SECONDS     MINUTES      HOURS       DAYS        YEARS
                    -----------------------------------------------------------
   TIME STEP LENGTH  86400.      1440.0      24.000      1.0000     2.73785E-03
 STRESS PERIOD TIME  86400.      1440.0      24.000      1.0000     2.73785E-03
         TOTAL TIME 1.94400E+07 3.24000E+05  5400.0      225.00     0.61602    


end timestep


start timestep kper="226" kstp="1" mode="normal"

 #Stressperiod Save Options

 BEGIN READING OUTPUT CONTROL FOR STRESS PERIOD 226
      ALL TIME STEPS WILL BE SAVED
      ALL TIME STEPS WILL BE SAVED

 END READING OUTPUT CONTROL FOR STRESS PERIOD 226


 PROCESSING STORAGE PERIOD DATA
 END PROCESSING STORAGE PERIOD DATA


 STRESS PERIOD 226 IS TRANSIENT


 REUSING DRNS FROM LAST STRESS PERIOD

 REUSING RIVS FROM LAST STRESS PERIOD

 REUSING RIVS FROM LAST STRESS PERIOD

 REUSING RCHS FROM LAST STRESS PERIOD
 UBDSV06 SAVING              DRN IN MODEL GWF_1            PACKAGE GWF_1           CONNECTED TO MODEL GWF_1            PACKAGE DRN_SYS1         ON UNIT   1018 AT TIME STEP      1, STRESS PERIOD    226
 UBDSV06 SAVING              RIV IN MODEL GWF_1            PACKAGE GWF_1           CONNECTED TO MODEL GWF_1            PACKAGE RIV_SYS1         ON UNIT   1018 AT TIME STEP      1, STRESS PERIOD    226
 UBDSV06 SAVING              RIV IN MODEL GWF_1            PACKAGE GWF_1           CONNECTED TO MODEL GWF_1            PACKAGE RIV_SYS2         ON UNIT   1018 AT TIME STEP      1, STRESS PERIOD    226
 UBDSV06 SAVING              RCH IN MODEL GWF_1            PACKAGE GWF_1           CONNECTED TO MODEL GWF_1            PACKAGE RCH_MSW          ON UNIT   1018 AT TIME STEP      1, STRESS PERIOD    226

 HEAD WILL BE SAVED ON UNIT 1017 AT END OF TIME STEP    1, STRESS PERIOD  226


  VOLUME BUDGET FOR ENTIRE MODEL AT END OF TIME STEP    1, STRESS PERIOD 226
  ---------------------------------------------------------------------------------------------------

     CUMULATIVE VOLUME      L**3       RATES FOR THIS TIME STEP      L**3/T          PACKAGE NAME    
     ------------------                 ------------------------                     ----------------

           IN:                                      IN:
           ---                                      ---
              STO-SS =      215094.6395                STO-SS =         144.1069     STORAGE                          
                 DRN =           0.0000                   DRN =           0.0000     DRN_SYS1                         
                 RIV =      176620.3447                   RIV =        1228.0017     RIV_SYS1                         
                 RIV =           0.0000                   RIV =           0.0000     RIV_SYS2                         
                 RCH =      265213.2484                   RCH =          88.0839     RCH_MSW                          

            TOTAL IN =      656928.2326              TOTAL IN =        1460.1925

          OUT:                                     OUT:
          ----                                     ----
              STO-SS =       15749.3368                STO-SS =           0.0000     STORAGE                          
                 DRN =       13102.4643                   DRN =          16.0021     DRN_SYS1                         
                 RIV =      586497.5489                   RIV =        1331.1085     RIV_SYS1                         
                 RIV =       36668.3864                   RIV =          55.6581     RIV_SYS2                         
                 RCH =        4910.7281                   RCH =          57.4281     RCH_MSW                          

           TOTAL OUT =      656928.4645             TOTAL OUT =        1460.1969

            IN - OUT =          -0.2319              IN - OUT =      -4.4178E-03

 PERCENT DISCREPANCY =          -0.00     PERCENT DISCREPANCY =          -0.00




         TIME SUMMARY AT END OF TIME STEP    1 IN STRESS PERIOD  226
                    SECONDS     MINUTES      HOURS       DAYS        YEARS
                    -----------------------------------------------------------
   TIME STEP LENGTH  86400.      1440.0      24.000      1.0000     2.73785E-03
 STRESS PERIOD TIME  86400.      1440.0      24.000      1.0000     2.73785E-03
         TOTAL TIME 1.95264E+07 3.25440E+05  5424.0      226.00     0.61875    


end timestep


start timestep kper="227" kstp="1" mode="normal"

 #Stressperiod Save Options

 BEGIN READING OUTPUT CONTROL FOR STRESS PERIOD 227
      ALL TIME STEPS WILL BE SAVED
      ALL TIME STEPS WILL BE SAVED

 END READING OUTPUT CONTROL FOR STRESS PERIOD 227


 PROCESSING STORAGE PERIOD DATA
 END PROCESSING STORAGE PERIOD DATA


 STRESS PERIOD 227 IS TRANSIENT


 REUSING DRNS FROM LAST STRESS PERIOD

 REUSING RIVS FROM LAST STRESS PERIOD

 REUSING RIVS FROM LAST STRESS PERIOD

 REUSING RCHS FROM LAST STRESS PERIOD
 UBDSV06 SAVING              DRN IN MODEL GWF_1            PACKAGE GWF_1           CONNECTED TO MODEL GWF_1            PACKAGE DRN_SYS1         ON UNIT   1018 AT TIME STEP      1, STRESS PERIOD    227
 UBDSV06 SAVING              RIV IN MODEL GWF_1            PACKAGE GWF_1           CONNECTED TO MODEL GWF_1            PACKAGE RIV_SYS1         ON UNIT   1018 AT TIME STEP      1, STRESS PERIOD    227
 UBDSV06 SAVING              RIV IN MODEL GWF_1            PACKAGE GWF_1           CONNECTED TO MODEL GWF_1            PACKAGE RIV_SYS2         ON UNIT   1018 AT TIME STEP      1, STRESS PERIOD    227
 UBDSV06 SAVING              RCH IN MODEL GWF_1            PACKAGE GWF_1           CONNECTED TO MODEL GWF_1            PACKAGE RCH_MSW          ON UNIT   1018 AT TIME STEP      1, STRESS PERIOD    227

 HEAD WILL BE SAVED ON UNIT 1017 AT END OF TIME STEP    1, STRESS PERIOD  227


  VOLUME BUDGET FOR ENTIRE MODEL AT END OF TIME STEP    1, STRESS PERIOD 227
  ---------------------------------------------------------------------------------------------------

     CUMULATIVE VOLUME      L**3       RATES FOR THIS TIME STEP      L**3/T          PACKAGE NAME    
     ------------------                 ------------------------                     ----------------

           IN:                                      IN:
           ---                                      ---
              STO-SS =      215236.1867                STO-SS =         141.5473     STORAGE                          
                 DRN =           0.0000                   DRN =           0.0000     DRN_SYS1                         
                 RIV =      177850.6800                   RIV =        1230.3353     RIV_SYS1                         
                 RIV =           0.0000                   RIV =           0.0000     RIV_SYS2                         
                 RCH =      265299.1223                   RCH =          85.8739     RCH_MSW                          

            TOTAL IN =      658385.9890              TOTAL IN =        1457.7565

          OUT:                                     OUT:
          ----                                     ----
              STO-SS =       15749.3368                STO-SS =           0.0000     STORAGE                          
                 DRN =       13118.2973                   DRN =          15.8330     DRN_SYS1                         
                 RIV =      587825.2801                   RIV =        1327.7312     RIV_SYS1                         
                 RIV =       36723.6132                   RIV =          55.2267     RIV_SYS2                         
                 RCH =        4969.6974                   RCH =          58.9693     RCH_MSW                          

           TOTAL OUT =      658386.2247             TOTAL OUT =        1457.7602

            IN - OUT =          -0.2356              IN - OUT =      -3.7384E-03

 PERCENT DISCREPANCY =          -0.00     PERCENT DISCREPANCY =          -0.00




         TIME SUMMARY AT END OF TIME STEP    1 IN STRESS PERIOD  227
                    SECONDS     MINUTES      HOURS       DAYS        YEARS
                    -----------------------------------------------------------
   TIME STEP LENGTH  86400.      1440.0      24.000      1.0000     2.73785E-03
 STRESS PERIOD TIME  86400.      1440.0      24.000      1.0000     2.73785E-03
         TOTAL TIME 1.96128E+07 3.26880E+05  5448.0      227.00     0.62149    


end timestep


start timestep kper="228" kstp="1" mode="normal"

 #Stressperiod Save Options

 BEGIN READING OUTPUT CONTROL FOR STRESS PERIOD 228
      ALL TIME STEPS WILL BE SAVED
      ALL TIME STEPS WILL BE SAVED

 END READING OUTPUT CONTROL FOR STRESS PERIOD 228


 PROCESSING STORAGE PERIOD DATA
 END PROCESSING STORAGE PERIOD DATA


 STRESS PERIOD 228 IS TRANSIENT


 REUSING DRNS FROM LAST STRESS PERIOD

 REUSING RIVS FROM LAST STRESS PERIOD

 REUSING RIVS FROM LAST STRESS PERIOD

 REUSING RCHS FROM LAST STRESS PERIOD
 UBDSV06 SAVING              DRN IN MODEL GWF_1            PACKAGE GWF_1           CONNECTED TO MODEL GWF_1            PACKAGE DRN_SYS1         ON UNIT   1018 AT TIME STEP      1, STRESS PERIOD    228
 UBDSV06 SAVING              RIV IN MODEL GWF_1            PACKAGE GWF_1           CONNECTED TO MODEL GWF_1            PACKAGE RIV_SYS1         ON UNIT   1018 AT TIME STEP      1, STRESS PERIOD    228
 UBDSV06 SAVING              RIV IN MODEL GWF_1            PACKAGE GWF_1           CONNECTED TO MODEL GWF_1            PACKAGE RIV_SYS2         ON UNIT   1018 AT TIME STEP      1, STRESS PERIOD    228
 UBDSV06 SAVING              RCH IN MODEL GWF_1            PACKAGE GWF_1           CONNECTED TO MODEL GWF_1            PACKAGE RCH_MSW          ON UNIT   1018 AT TIME STEP      1, STRESS PERIOD    228

 HEAD WILL BE SAVED ON UNIT 1017 AT END OF TIME STEP    1, STRESS PERIOD  228


  VOLUME BUDGET FOR ENTIRE MODEL AT END OF TIME STEP    1, STRESS PERIOD 228
  ---------------------------------------------------------------------------------------------------

     CUMULATIVE VOLUME      L**3       RATES FOR THIS TIME STEP      L**3/T          PACKAGE NAME    
     ------------------                 ------------------------                     ----------------

           IN:                                      IN:
           ---                                      ---
              STO-SS =      215375.3201                STO-SS =         139.1334     STORAGE                          
                 DRN =           0.0000                   DRN =           0.0000     DRN_SYS1                         
                 RIV =      179083.3542                   RIV =        1232.6742     RIV_SYS1                         
                 RIV =           0.0000                   RIV =           0.0000     RIV_SYS2                         
                 RCH =      265382.7519                   RCH =          83.6296     RCH_MSW                          

            TOTAL IN =      659841.4262              TOTAL IN =        1455.4372

          OUT:                                     OUT:
          ----                                     ----
              STO-SS =       15749.3368                STO-SS =           0.0000     STORAGE                          
                 DRN =       13133.9669                   DRN =          15.6696     DRN_SYS1                         
                 RIV =      589149.6180                   RIV =        1324.3380     RIV_SYS1                         
                 RIV =       36778.4255                   RIV =          54.8123     RIV_SYS2                         
                 RCH =        5030.3174                   RCH =          60.6200     RCH_MSW                          

           TOTAL OUT =      659841.6646             TOTAL OUT =        1455.4399

            IN - OUT =          -0.2384              IN - OUT =      -2.7074E-03

 PERCENT DISCREPANCY =          -0.00     PERCENT DISCREPANCY =          -0.00




         TIME SUMMARY AT END OF TIME STEP    1 IN STRESS PERIOD  228
                    SECONDS     MINUTES      HOURS       DAYS        YEARS
                    -----------------------------------------------------------
   TIME STEP LENGTH  86400.      1440.0      24.000      1.0000     2.73785E-03
 STRESS PERIOD TIME  86400.      1440.0      24.000      1.0000     2.73785E-03
         TOTAL TIME 1.96992E+07 3.28320E+05  5472.0      228.00     0.62423    


end timestep


start timestep kper="229" kstp="1" mode="normal"

 #Stressperiod Save Options

 BEGIN READING OUTPUT CONTROL FOR STRESS PERIOD 229
      ALL TIME STEPS WILL BE SAVED
      ALL TIME STEPS WILL BE SAVED

 END READING OUTPUT CONTROL FOR STRESS PERIOD 229


 PROCESSING STORAGE PERIOD DATA
 END PROCESSING STORAGE PERIOD DATA


 STRESS PERIOD 229 IS TRANSIENT


 REUSING DRNS FROM LAST STRESS PERIOD

 REUSING RIVS FROM LAST STRESS PERIOD

 REUSING RIVS FROM LAST STRESS PERIOD

 REUSING RCHS FROM LAST STRESS PERIOD
 UBDSV06 SAVING              DRN IN MODEL GWF_1            PACKAGE GWF_1           CONNECTED TO MODEL GWF_1            PACKAGE DRN_SYS1         ON UNIT   1018 AT TIME STEP      1, STRESS PERIOD    229
 UBDSV06 SAVING              RIV IN MODEL GWF_1            PACKAGE GWF_1           CONNECTED TO MODEL GWF_1            PACKAGE RIV_SYS1         ON UNIT   1018 AT TIME STEP      1, STRESS PERIOD    229
 UBDSV06 SAVING              RIV IN MODEL GWF_1            PACKAGE GWF_1           CONNECTED TO MODEL GWF_1            PACKAGE RIV_SYS2         ON UNIT   1018 AT TIME STEP      1, STRESS PERIOD    229
 UBDSV06 SAVING              RCH IN MODEL GWF_1            PACKAGE GWF_1           CONNECTED TO MODEL GWF_1            PACKAGE RCH_MSW          ON UNIT   1018 AT TIME STEP      1, STRESS PERIOD    229

 HEAD WILL BE SAVED ON UNIT 1017 AT END OF TIME STEP    1, STRESS PERIOD  229


  VOLUME BUDGET FOR ENTIRE MODEL AT END OF TIME STEP    1, STRESS PERIOD 229
  ---------------------------------------------------------------------------------------------------

     CUMULATIVE VOLUME      L**3       RATES FOR THIS TIME STEP      L**3/T          PACKAGE NAME    
     ------------------                 ------------------------                     ----------------

           IN:                                      IN:
           ---                                      ---
              STO-SS =      215413.9969                STO-SS =          38.6768     STORAGE                          
                 DRN =           0.0000                   DRN =           0.0000     DRN_SYS1                         
                 RIV =      180317.6919                   RIV =        1234.3377     RIV_SYS1                         
                 RIV =           0.0000                   RIV =           0.0000     RIV_SYS2                         
                 RCH =      265572.5173                   RCH =         189.7655     RCH_MSW                          

            TOTAL IN =      661304.2061              TOTAL IN =        1462.7799

          OUT:                                     OUT:
          ----                                     ----
              STO-SS =       15757.7352                STO-SS =           8.3984     STORAGE                          
                 DRN =       13149.6009                   DRN =          15.6340     DRN_SYS1                         
                 RIV =      590471.4992                   RIV =        1321.8812     RIV_SYS1                         
                 RIV =       36833.2370                   RIV =          54.8115     RIV_SYS2                         
                 RCH =        5092.3830                   RCH =          62.0656     RCH_MSW                          

           TOTAL OUT =      661304.4553             TOTAL OUT =        1462.7907

            IN - OUT =          -0.2491              IN - OUT =      -1.0794E-02

 PERCENT DISCREPANCY =          -0.00     PERCENT DISCREPANCY =          -0.00




         TIME SUMMARY AT END OF TIME STEP    1 IN STRESS PERIOD  229
                    SECONDS     MINUTES      HOURS       DAYS        YEARS
                    -----------------------------------------------------------
   TIME STEP LENGTH  86400.      1440.0      24.000      1.0000     2.73785E-03
 STRESS PERIOD TIME  86400.      1440.0      24.000      1.0000     2.73785E-03
         TOTAL TIME 1.97856E+07 3.29760E+05  5496.0      229.00     0.62697    


end timestep


start timestep kper="230" kstp="1" mode="normal"

 #Stressperiod Save Options

 BEGIN READING OUTPUT CONTROL FOR STRESS PERIOD 230
      ALL TIME STEPS WILL BE SAVED
      ALL TIME STEPS WILL BE SAVED

 END READING OUTPUT CONTROL FOR STRESS PERIOD 230


 PROCESSING STORAGE PERIOD DATA
 END PROCESSING STORAGE PERIOD DATA


 STRESS PERIOD 230 IS TRANSIENT


 REUSING DRNS FROM LAST STRESS PERIOD

 REUSING RIVS FROM LAST STRESS PERIOD

 REUSING RIVS FROM LAST STRESS PERIOD

 REUSING RCHS FROM LAST STRESS PERIOD
 UBDSV06 SAVING              DRN IN MODEL GWF_1            PACKAGE GWF_1           CONNECTED TO MODEL GWF_1            PACKAGE DRN_SYS1         ON UNIT   1018 AT TIME STEP      1, STRESS PERIOD    230
 UBDSV06 SAVING              RIV IN MODEL GWF_1            PACKAGE GWF_1           CONNECTED TO MODEL GWF_1            PACKAGE RIV_SYS1         ON UNIT   1018 AT TIME STEP      1, STRESS PERIOD    230
 UBDSV06 SAVING              RIV IN MODEL GWF_1            PACKAGE GWF_1           CONNECTED TO MODEL GWF_1            PACKAGE RIV_SYS2         ON UNIT   1018 AT TIME STEP      1, STRESS PERIOD    230
 UBDSV06 SAVING              RCH IN MODEL GWF_1            PACKAGE GWF_1           CONNECTED TO MODEL GWF_1            PACKAGE RCH_MSW          ON UNIT   1018 AT TIME STEP      1, STRESS PERIOD    230

 HEAD WILL BE SAVED ON UNIT 1017 AT END OF TIME STEP    1, STRESS PERIOD  230


  VOLUME BUDGET FOR ENTIRE MODEL AT END OF TIME STEP    1, STRESS PERIOD 230
  ---------------------------------------------------------------------------------------------------

     CUMULATIVE VOLUME      L**3       RATES FOR THIS TIME STEP      L**3/T          PACKAGE NAME    
     ------------------                 ------------------------                     ----------------

           IN:                                      IN:
           ---                                      ---
              STO-SS =      215445.3976                STO-SS =          31.4007     STORAGE                          
                 DRN =           0.0000                   DRN =           0.0000     DRN_SYS1                         
                 RIV =      181553.1956                   RIV =        1235.5036     RIV_SYS1                         
                 RIV =           0.0000                   RIV =           0.0000     RIV_SYS2                         
                 RCH =      265761.5485                   RCH =         189.0312     RCH_MSW                          

            TOTAL IN =      662760.1417              TOTAL IN =        1455.9355

          OUT:                                     OUT:
          ----                                     ----
              STO-SS =       15760.6681                STO-SS =           2.9329     STORAGE                          
                 DRN =       13165.2027                   DRN =          15.6017     DRN_SYS1                         
                 RIV =      591791.5285                   RIV =        1320.0293     RIV_SYS1                         
                 RIV =       36888.0144                   RIV =          54.7774     RIV_SYS2                         
                 RCH =        5154.9828                   RCH =          62.5998     RCH_MSW                          

           TOTAL OUT =      662760.3964             TOTAL OUT =        1455.9411

            IN - OUT =          -0.2547              IN - OUT =      -5.5783E-03

 PERCENT DISCREPANCY =          -0.00     PERCENT DISCREPANCY =          -0.00




         TIME SUMMARY AT END OF TIME STEP    1 IN STRESS PERIOD  230
                    SECONDS     MINUTES      HOURS       DAYS        YEARS
                    -----------------------------------------------------------
   TIME STEP LENGTH  86400.      1440.0      24.000      1.0000     2.73785E-03
 STRESS PERIOD TIME  86400.      1440.0      24.000      1.0000     2.73785E-03
         TOTAL TIME 1.98720E+07 3.31200E+05  5520.0      230.00     0.62971    


end timestep


start timestep kper="231" kstp="1" mode="normal"

 #Stressperiod Save Options

 BEGIN READING OUTPUT CONTROL FOR STRESS PERIOD 231
      ALL TIME STEPS WILL BE SAVED
      ALL TIME STEPS WILL BE SAVED

 END READING OUTPUT CONTROL FOR STRESS PERIOD 231


 PROCESSING STORAGE PERIOD DATA
 END PROCESSING STORAGE PERIOD DATA


 STRESS PERIOD 231 IS TRANSIENT


 REUSING DRNS FROM LAST STRESS PERIOD

 REUSING RIVS FROM LAST STRESS PERIOD

 REUSING RIVS FROM LAST STRESS PERIOD

 REUSING RCHS FROM LAST STRESS PERIOD
 UBDSV06 SAVING              DRN IN MODEL GWF_1            PACKAGE GWF_1           CONNECTED TO MODEL GWF_1            PACKAGE DRN_SYS1         ON UNIT   1018 AT TIME STEP      1, STRESS PERIOD    231
 UBDSV06 SAVING              RIV IN MODEL GWF_1            PACKAGE GWF_1           CONNECTED TO MODEL GWF_1            PACKAGE RIV_SYS1         ON UNIT   1018 AT TIME STEP      1, STRESS PERIOD    231
 UBDSV06 SAVING              RIV IN MODEL GWF_1            PACKAGE GWF_1           CONNECTED TO MODEL GWF_1            PACKAGE RIV_SYS2         ON UNIT   1018 AT TIME STEP      1, STRESS PERIOD    231
 UBDSV06 SAVING              RCH IN MODEL GWF_1            PACKAGE GWF_1           CONNECTED TO MODEL GWF_1            PACKAGE RCH_MSW          ON UNIT   1018 AT TIME STEP      1, STRESS PERIOD    231

 HEAD WILL BE SAVED ON UNIT 1017 AT END OF TIME STEP    1, STRESS PERIOD  231


  VOLUME BUDGET FOR ENTIRE MODEL AT END OF TIME STEP    1, STRESS PERIOD 231
  ---------------------------------------------------------------------------------------------------

     CUMULATIVE VOLUME      L**3       RATES FOR THIS TIME STEP      L**3/T          PACKAGE NAME    
     ------------------                 ------------------------                     ----------------

           IN:                                      IN:
           ---                                      ---
              STO-SS =      215476.5350                STO-SS =          31.1374     STORAGE                          
                 DRN =           0.0000                   DRN =           0.0000     DRN_SYS1                         
                 RIV =      182789.5186                   RIV =        1236.3230     RIV_SYS1                         
                 RIV =           0.0000                   RIV =           0.0000     RIV_SYS2                         
                 RCH =      265946.4844                   RCH =         184.9359     RCH_MSW                          

            TOTAL IN =      664212.5380              TOTAL IN =        1452.3963

          OUT:                                     OUT:
          ----                                     ----
              STO-SS =       15761.5411                STO-SS =           0.8730     STORAGE                          
                 DRN =       13180.7594                   DRN =          15.5568     DRN_SYS1                         
                 RIV =      593109.9927                   RIV =        1318.4642     RIV_SYS1                         
                 RIV =       36942.7379                   RIV =          54.7235     RIV_SYS2                         
                 RCH =        5217.7641                   RCH =          62.7813     RCH_MSW                          

           TOTAL OUT =      664212.7952             TOTAL OUT =        1452.3988

            IN - OUT =          -0.2572              IN - OUT =      -2.4894E-03

 PERCENT DISCREPANCY =          -0.00     PERCENT DISCREPANCY =          -0.00




         TIME SUMMARY AT END OF TIME STEP    1 IN STRESS PERIOD  231
                    SECONDS     MINUTES      HOURS       DAYS        YEARS
                    -----------------------------------------------------------
   TIME STEP LENGTH  86400.      1440.0      24.000      1.0000     2.73785E-03
 STRESS PERIOD TIME  86400.      1440.0      24.000      1.0000     2.73785E-03
         TOTAL TIME 1.99584E+07 3.32640E+05  5544.0      231.00     0.63244    


end timestep


start timestep kper="232" kstp="1" mode="normal"

 #Stressperiod Save Options

 BEGIN READING OUTPUT CONTROL FOR STRESS PERIOD 232
      ALL TIME STEPS WILL BE SAVED
      ALL TIME STEPS WILL BE SAVED

 END READING OUTPUT CONTROL FOR STRESS PERIOD 232


 PROCESSING STORAGE PERIOD DATA
 END PROCESSING STORAGE PERIOD DATA


 STRESS PERIOD 232 IS TRANSIENT


 REUSING DRNS FROM LAST STRESS PERIOD

 REUSING RIVS FROM LAST STRESS PERIOD

 REUSING RIVS FROM LAST STRESS PERIOD

 REUSING RCHS FROM LAST STRESS PERIOD
 UBDSV06 SAVING              DRN IN MODEL GWF_1            PACKAGE GWF_1           CONNECTED TO MODEL GWF_1            PACKAGE DRN_SYS1         ON UNIT   1018 AT TIME STEP      1, STRESS PERIOD    232
 UBDSV06 SAVING              RIV IN MODEL GWF_1            PACKAGE GWF_1           CONNECTED TO MODEL GWF_1            PACKAGE RIV_SYS1         ON UNIT   1018 AT TIME STEP      1, STRESS PERIOD    232
 UBDSV06 SAVING              RIV IN MODEL GWF_1            PACKAGE GWF_1           CONNECTED TO MODEL GWF_1            PACKAGE RIV_SYS2         ON UNIT   1018 AT TIME STEP      1, STRESS PERIOD    232
 UBDSV06 SAVING              RCH IN MODEL GWF_1            PACKAGE GWF_1           CONNECTED TO MODEL GWF_1            PACKAGE RCH_MSW          ON UNIT   1018 AT TIME STEP      1, STRESS PERIOD    232

 HEAD WILL BE SAVED ON UNIT 1017 AT END OF TIME STEP    1, STRESS PERIOD  232


  VOLUME BUDGET FOR ENTIRE MODEL AT END OF TIME STEP    1, STRESS PERIOD 232
  ---------------------------------------------------------------------------------------------------

     CUMULATIVE VOLUME      L**3       RATES FOR THIS TIME STEP      L**3/T          PACKAGE NAME    
     ------------------                 ------------------------                     ----------------

           IN:                                      IN:
           ---                                      ---
              STO-SS =      215509.5666                STO-SS =          33.0316     STORAGE                          
                 DRN =           0.0000                   DRN =           0.0000     DRN_SYS1                         
                 RIV =      184026.4372                   RIV =        1236.9185     RIV_SYS1                         
                 RIV =           0.0000                   RIV =           0.0000     RIV_SYS2                         
                 RCH =      266127.1025                   RCH =         180.6181     RCH_MSW                          

            TOTAL IN =      665663.1063              TOTAL IN =        1450.5683

          OUT:                                     OUT:
          ----                                     ----
              STO-SS =       15762.1883                STO-SS =           0.6472     STORAGE                          
                 DRN =       13196.2637                   DRN =          15.5043     DRN_SYS1                         
                 RIV =      594426.9865                   RIV =        1316.9938     RIV_SYS1                         
                 RIV =       36997.3653                   RIV =          54.6274     RIV_SYS2                         
                 RCH =        5280.5627                   RCH =          62.7986     RCH_MSW                          

           TOTAL OUT =      665663.3665             TOTAL OUT =        1450.5713

            IN - OUT =          -0.2602              IN - OUT =      -2.9869E-03

 PERCENT DISCREPANCY =          -0.00     PERCENT DISCREPANCY =          -0.00




         TIME SUMMARY AT END OF TIME STEP    1 IN STRESS PERIOD  232
                    SECONDS     MINUTES      HOURS       DAYS        YEARS
                    -----------------------------------------------------------
   TIME STEP LENGTH  86400.      1440.0      24.000      1.0000     2.73785E-03
 STRESS PERIOD TIME  86400.      1440.0      24.000      1.0000     2.73785E-03
         TOTAL TIME 2.00448E+07 3.34080E+05  5568.0      232.00     0.63518    


end timestep


start timestep kper="233" kstp="1" mode="normal"

 #Stressperiod Save Options

 BEGIN READING OUTPUT CONTROL FOR STRESS PERIOD 233
      ALL TIME STEPS WILL BE SAVED
      ALL TIME STEPS WILL BE SAVED

 END READING OUTPUT CONTROL FOR STRESS PERIOD 233


 PROCESSING STORAGE PERIOD DATA
 END PROCESSING STORAGE PERIOD DATA


 STRESS PERIOD 233 IS TRANSIENT


 REUSING DRNS FROM LAST STRESS PERIOD

 REUSING RIVS FROM LAST STRESS PERIOD

 REUSING RIVS FROM LAST STRESS PERIOD

 REUSING RCHS FROM LAST STRESS PERIOD
 UBDSV06 SAVING              DRN IN MODEL GWF_1            PACKAGE GWF_1           CONNECTED TO MODEL GWF_1            PACKAGE DRN_SYS1         ON UNIT   1018 AT TIME STEP      1, STRESS PERIOD    233
 UBDSV06 SAVING              RIV IN MODEL GWF_1            PACKAGE GWF_1           CONNECTED TO MODEL GWF_1            PACKAGE RIV_SYS1         ON UNIT   1018 AT TIME STEP      1, STRESS PERIOD    233
 UBDSV06 SAVING              RIV IN MODEL GWF_1            PACKAGE GWF_1           CONNECTED TO MODEL GWF_1            PACKAGE RIV_SYS2         ON UNIT   1018 AT TIME STEP      1, STRESS PERIOD    233
 UBDSV06 SAVING              RCH IN MODEL GWF_1            PACKAGE GWF_1           CONNECTED TO MODEL GWF_1            PACKAGE RCH_MSW          ON UNIT   1018 AT TIME STEP      1, STRESS PERIOD    233

 HEAD WILL BE SAVED ON UNIT 1017 AT END OF TIME STEP    1, STRESS PERIOD  233


  VOLUME BUDGET FOR ENTIRE MODEL AT END OF TIME STEP    1, STRESS PERIOD 233
  ---------------------------------------------------------------------------------------------------

     CUMULATIVE VOLUME      L**3       RATES FOR THIS TIME STEP      L**3/T          PACKAGE NAME    
     ------------------                 ------------------------                     ----------------

           IN:                                      IN:
           ---                                      ---
              STO-SS =      215548.4019                STO-SS =          38.8353     STORAGE                          
                 DRN =           0.0000                   DRN =           0.0000     DRN_SYS1                         
                 RIV =      185263.8611                   RIV =        1237.4239     RIV_SYS1                         
                 RIV =           0.0000                   RIV =           0.0000     RIV_SYS2                         
                 RCH =      266299.5724                   RCH =         172.4699     RCH_MSW                          

            TOTAL IN =      667111.8354              TOTAL IN =        1448.7291

          OUT:                                     OUT:
          ----                                     ----
              STO-SS =       15762.1954                STO-SS =       7.1145E-03     STORAGE                          
                 DRN =       13211.7111                   DRN =          15.4473     DRN_SYS1                         
                 RIV =      595742.5477                   RIV =        1315.5613     RIV_SYS1                         
                 RIV =       37051.8886                   RIV =          54.5233     RIV_SYS2                         
                 RCH =        5343.7557                   RCH =          63.1930     RCH_MSW                          

           TOTAL OUT =      667112.0985             TOTAL OUT =        1448.7320

            IN - OUT =          -0.2631              IN - OUT =      -2.8686E-03

 PERCENT DISCREPANCY =          -0.00     PERCENT DISCREPANCY =          -0.00




         TIME SUMMARY AT END OF TIME STEP    1 IN STRESS PERIOD  233
                    SECONDS     MINUTES      HOURS       DAYS        YEARS
                    -----------------------------------------------------------
   TIME STEP LENGTH  86400.      1440.0      24.000      1.0000     2.73785E-03
 STRESS PERIOD TIME  86400.      1440.0      24.000      1.0000     2.73785E-03
         TOTAL TIME 2.01312E+07 3.35520E+05  5592.0      233.00     0.63792    


end timestep


start timestep kper="234" kstp="1" mode="normal"

 #Stressperiod Save Options

 BEGIN READING OUTPUT CONTROL FOR STRESS PERIOD 234
      ALL TIME STEPS WILL BE SAVED
      ALL TIME STEPS WILL BE SAVED

 END READING OUTPUT CONTROL FOR STRESS PERIOD 234


 PROCESSING STORAGE PERIOD DATA
 END PROCESSING STORAGE PERIOD DATA


 STRESS PERIOD 234 IS TRANSIENT


 REUSING DRNS FROM LAST STRESS PERIOD

 REUSING RIVS FROM LAST STRESS PERIOD

 REUSING RIVS FROM LAST STRESS PERIOD

 REUSING RCHS FROM LAST STRESS PERIOD
 UBDSV06 SAVING              DRN IN MODEL GWF_1            PACKAGE GWF_1           CONNECTED TO MODEL GWF_1            PACKAGE DRN_SYS1         ON UNIT   1018 AT TIME STEP      1, STRESS PERIOD    234
 UBDSV06 SAVING              RIV IN MODEL GWF_1            PACKAGE GWF_1           CONNECTED TO MODEL GWF_1            PACKAGE RIV_SYS1         ON UNIT   1018 AT TIME STEP      1, STRESS PERIOD    234
 UBDSV06 SAVING              RIV IN MODEL GWF_1            PACKAGE GWF_1           CONNECTED TO MODEL GWF_1            PACKAGE RIV_SYS2         ON UNIT   1018 AT TIME STEP      1, STRESS PERIOD    234
 UBDSV06 SAVING              RCH IN MODEL GWF_1            PACKAGE GWF_1           CONNECTED TO MODEL GWF_1            PACKAGE RCH_MSW          ON UNIT   1018 AT TIME STEP      1, STRESS PERIOD    234

 HEAD WILL BE SAVED ON UNIT 1017 AT END OF TIME STEP    1, STRESS PERIOD  234


  VOLUME BUDGET FOR ENTIRE MODEL AT END OF TIME STEP    1, STRESS PERIOD 234
  ---------------------------------------------------------------------------------------------------

     CUMULATIVE VOLUME      L**3       RATES FOR THIS TIME STEP      L**3/T          PACKAGE NAME    
     ------------------                 ------------------------                     ----------------

           IN:                                      IN:
           ---                                      ---
              STO-SS =      215583.2560                STO-SS =          34.8541     STORAGE                          
                 DRN =           0.0000                   DRN =           0.0000     DRN_SYS1                         
                 RIV =      186501.7320                   RIV =        1237.8709     RIV_SYS1                         
                 RIV =           0.0000                   RIV =           0.0000     RIV_SYS2                         
                 RCH =      266474.6250                   RCH =         175.0526     RCH_MSW                          

            TOTAL IN =      668559.6131              TOTAL IN =        1447.7776

          OUT:                                     OUT:
          ----                                     ----
              STO-SS =       15762.2583                STO-SS =       6.2841E-02     STORAGE                          
                 DRN =       13227.1062                   DRN =          15.3952     DRN_SYS1                         
                 RIV =      597056.7774                   RIV =        1314.2297     RIV_SYS1                         
                 RIV =       37106.3248                   RIV =          54.4363     RIV_SYS2                         
                 RCH =        5407.4112                   RCH =          63.6555     RCH_MSW                          

           TOTAL OUT =      668559.8780             TOTAL OUT =        1447.7795

            IN - OUT =          -0.2649              IN - OUT =      -1.8266E-03

 PERCENT DISCREPANCY =          -0.00     PERCENT DISCREPANCY =          -0.00




         TIME SUMMARY AT END OF TIME STEP    1 IN STRESS PERIOD  234
                    SECONDS     MINUTES      HOURS       DAYS        YEARS
                    -----------------------------------------------------------
   TIME STEP LENGTH  86400.      1440.0      24.000      1.0000     2.73785E-03
 STRESS PERIOD TIME  86400.      1440.0      24.000      1.0000     2.73785E-03
         TOTAL TIME 2.02176E+07 3.36960E+05  5616.0      234.00     0.64066    


end timestep


start timestep kper="235" kstp="1" mode="normal"

 #Stressperiod Save Options

 BEGIN READING OUTPUT CONTROL FOR STRESS PERIOD 235
      ALL TIME STEPS WILL BE SAVED
      ALL TIME STEPS WILL BE SAVED

 END READING OUTPUT CONTROL FOR STRESS PERIOD 235


 PROCESSING STORAGE PERIOD DATA
 END PROCESSING STORAGE PERIOD DATA


 STRESS PERIOD 235 IS TRANSIENT


 REUSING DRNS FROM LAST STRESS PERIOD

 REUSING RIVS FROM LAST STRESS PERIOD

 REUSING RIVS FROM LAST STRESS PERIOD

 REUSING RCHS FROM LAST STRESS PERIOD
 UBDSV06 SAVING              DRN IN MODEL GWF_1            PACKAGE GWF_1           CONNECTED TO MODEL GWF_1            PACKAGE DRN_SYS1         ON UNIT   1018 AT TIME STEP      1, STRESS PERIOD    235
 UBDSV06 SAVING              RIV IN MODEL GWF_1            PACKAGE GWF_1           CONNECTED TO MODEL GWF_1            PACKAGE RIV_SYS1         ON UNIT   1018 AT TIME STEP      1, STRESS PERIOD    235
 UBDSV06 SAVING              RIV IN MODEL GWF_1            PACKAGE GWF_1           CONNECTED TO MODEL GWF_1            PACKAGE RIV_SYS2         ON UNIT   1018 AT TIME STEP      1, STRESS PERIOD    235
 UBDSV06 SAVING              RCH IN MODEL GWF_1            PACKAGE GWF_1           CONNECTED TO MODEL GWF_1            PACKAGE RCH_MSW          ON UNIT   1018 AT TIME STEP      1, STRESS PERIOD    235

 HEAD WILL BE SAVED ON UNIT 1017 AT END OF TIME STEP    1, STRESS PERIOD  235


  VOLUME BUDGET FOR ENTIRE MODEL AT END OF TIME STEP    1, STRESS PERIOD 235
  ---------------------------------------------------------------------------------------------------

     CUMULATIVE VOLUME      L**3       RATES FOR THIS TIME STEP      L**3/T          PACKAGE NAME    
     ------------------                 ------------------------                     ----------------

           IN:                                      IN:
           ---                                      ---
              STO-SS =      215613.7179                STO-SS =          30.4619     STORAGE                          
                 DRN =           0.0000                   DRN =           0.0000     DRN_SYS1                         
                 RIV =      187739.9670                   RIV =        1238.2350     RIV_SYS1                         
                 RIV =           0.0000                   RIV =           0.0000     RIV_SYS2                         
                 RCH =      266653.0721                   RCH =         178.4471     RCH_MSW                          

            TOTAL IN =      670006.7570              TOTAL IN =        1447.1440

          OUT:                                     OUT:
          ----                                     ----
              STO-SS =       15762.9195                STO-SS =           0.6612     STORAGE                          
                 DRN =       13242.4498                   DRN =          15.3436     DRN_SYS1                         
                 RIV =      598369.8216                   RIV =        1313.0442     RIV_SYS1                         
                 RIV =       37160.6857                   RIV =          54.3609     RIV_SYS2                         
                 RCH =        5471.1470                   RCH =          63.7358     RCH_MSW                          

           TOTAL OUT =      670007.0235             TOTAL OUT =        1447.1456

            IN - OUT =          -0.2665              IN - OUT =      -1.6273E-03

 PERCENT DISCREPANCY =          -0.00     PERCENT DISCREPANCY =          -0.00




         TIME SUMMARY AT END OF TIME STEP    1 IN STRESS PERIOD  235
                    SECONDS     MINUTES      HOURS       DAYS        YEARS
                    -----------------------------------------------------------
   TIME STEP LENGTH  86400.      1440.0      24.000      1.0000     2.73785E-03
 STRESS PERIOD TIME  86400.      1440.0      24.000      1.0000     2.73785E-03
         TOTAL TIME 2.03040E+07 3.38400E+05  5640.0      235.00     0.64339    


end timestep


start timestep kper="236" kstp="1" mode="normal"

 #Stressperiod Save Options

 BEGIN READING OUTPUT CONTROL FOR STRESS PERIOD 236
      ALL TIME STEPS WILL BE SAVED
      ALL TIME STEPS WILL BE SAVED

 END READING OUTPUT CONTROL FOR STRESS PERIOD 236


 PROCESSING STORAGE PERIOD DATA
 END PROCESSING STORAGE PERIOD DATA


 STRESS PERIOD 236 IS TRANSIENT


 REUSING DRNS FROM LAST STRESS PERIOD

 REUSING RIVS FROM LAST STRESS PERIOD

 REUSING RIVS FROM LAST STRESS PERIOD

 REUSING RCHS FROM LAST STRESS PERIOD
 UBDSV06 SAVING              DRN IN MODEL GWF_1            PACKAGE GWF_1           CONNECTED TO MODEL GWF_1            PACKAGE DRN_SYS1         ON UNIT   1018 AT TIME STEP      1, STRESS PERIOD    236
 UBDSV06 SAVING              RIV IN MODEL GWF_1            PACKAGE GWF_1           CONNECTED TO MODEL GWF_1            PACKAGE RIV_SYS1         ON UNIT   1018 AT TIME STEP      1, STRESS PERIOD    236
 UBDSV06 SAVING              RIV IN MODEL GWF_1            PACKAGE GWF_1           CONNECTED TO MODEL GWF_1            PACKAGE RIV_SYS2         ON UNIT   1018 AT TIME STEP      1, STRESS PERIOD    236
 UBDSV06 SAVING              RCH IN MODEL GWF_1            PACKAGE GWF_1           CONNECTED TO MODEL GWF_1            PACKAGE RCH_MSW          ON UNIT   1018 AT TIME STEP      1, STRESS PERIOD    236

 HEAD WILL BE SAVED ON UNIT 1017 AT END OF TIME STEP    1, STRESS PERIOD  236


  VOLUME BUDGET FOR ENTIRE MODEL AT END OF TIME STEP    1, STRESS PERIOD 236
  ---------------------------------------------------------------------------------------------------

     CUMULATIVE VOLUME      L**3       RATES FOR THIS TIME STEP      L**3/T          PACKAGE NAME    
     ------------------                 ------------------------                     ----------------

           IN:                                      IN:
           ---                                      ---
              STO-SS =      215643.6680                STO-SS =          29.9500     STORAGE                          
                 DRN =           0.0000                   DRN =           0.0000     DRN_SYS1                         
                 RIV =      188978.5054                   RIV =        1238.5384     RIV_SYS1                         
                 RIV =           0.0000                   RIV =           0.0000     RIV_SYS2                         
                 RCH =      266830.3817                   RCH =         177.3096     RCH_MSW                          

            TOTAL IN =      671452.5551              TOTAL IN =        1445.7980

          OUT:                                     OUT:
          ----                                     ----
              STO-SS =       15763.3241                STO-SS =           0.4046     STORAGE                          
                 DRN =       13257.7448                   DRN =          15.2950     DRN_SYS1                         
                 RIV =      599681.8124                   RIV =        1311.9908     RIV_SYS1                         
                 RIV =       37214.9625                   RIV =          54.2768     RIV_SYS2                         
                 RCH =        5534.9796                   RCH =          63.8326     RCH_MSW                          

           TOTAL OUT =      671452.8234             TOTAL OUT =        1445.7998

            IN - OUT =          -0.2683              IN - OUT =      -1.7873E-03

 PERCENT DISCREPANCY =          -0.00     PERCENT DISCREPANCY =          -0.00




         TIME SUMMARY AT END OF TIME STEP    1 IN STRESS PERIOD  236
                    SECONDS     MINUTES      HOURS       DAYS        YEARS
                    -----------------------------------------------------------
   TIME STEP LENGTH  86400.      1440.0      24.000      1.0000     2.73785E-03
 STRESS PERIOD TIME  86400.      1440.0      24.000      1.0000     2.73785E-03
         TOTAL TIME 2.03904E+07 3.39840E+05  5664.0      236.00     0.64613    


end timestep


start timestep kper="237" kstp="1" mode="normal"

 #Stressperiod Save Options

 BEGIN READING OUTPUT CONTROL FOR STRESS PERIOD 237
      ALL TIME STEPS WILL BE SAVED
      ALL TIME STEPS WILL BE SAVED

 END READING OUTPUT CONTROL FOR STRESS PERIOD 237


 PROCESSING STORAGE PERIOD DATA
 END PROCESSING STORAGE PERIOD DATA


 STRESS PERIOD 237 IS TRANSIENT


 REUSING DRNS FROM LAST STRESS PERIOD

 REUSING RIVS FROM LAST STRESS PERIOD

 REUSING RIVS FROM LAST STRESS PERIOD

 REUSING RCHS FROM LAST STRESS PERIOD
 UBDSV06 SAVING              DRN IN MODEL GWF_1            PACKAGE GWF_1           CONNECTED TO MODEL GWF_1            PACKAGE DRN_SYS1         ON UNIT   1018 AT TIME STEP      1, STRESS PERIOD    237
 UBDSV06 SAVING              RIV IN MODEL GWF_1            PACKAGE GWF_1           CONNECTED TO MODEL GWF_1            PACKAGE RIV_SYS1         ON UNIT   1018 AT TIME STEP      1, STRESS PERIOD    237
 UBDSV06 SAVING              RIV IN MODEL GWF_1            PACKAGE GWF_1           CONNECTED TO MODEL GWF_1            PACKAGE RIV_SYS2         ON UNIT   1018 AT TIME STEP      1, STRESS PERIOD    237
 UBDSV06 SAVING              RCH IN MODEL GWF_1            PACKAGE GWF_1           CONNECTED TO MODEL GWF_1            PACKAGE RCH_MSW          ON UNIT   1018 AT TIME STEP      1, STRESS PERIOD    237

 HEAD WILL BE SAVED ON UNIT 1017 AT END OF TIME STEP    1, STRESS PERIOD  237


  VOLUME BUDGET FOR ENTIRE MODEL AT END OF TIME STEP    1, STRESS PERIOD 237
  ---------------------------------------------------------------------------------------------------

     CUMULATIVE VOLUME      L**3       RATES FOR THIS TIME STEP      L**3/T          PACKAGE NAME    
     ------------------                 ------------------------                     ----------------

           IN:                                      IN:
           ---                                      ---
              STO-SS =      215672.0644                STO-SS =          28.3964     STORAGE                          
                 DRN =           0.0000                   DRN =           0.0000     DRN_SYS1                         
                 RIV =      190217.3212                   RIV =        1238.8158     RIV_SYS1                         
                 RIV =           0.0000                   RIV =           0.0000     RIV_SYS2                         
                 RCH =      267007.8356                   RCH =         177.4539     RCH_MSW                          

            TOTAL IN =      672897.2211              TOTAL IN =        1444.6661

          OUT:                                     OUT:
          ----                                     ----
              STO-SS =       15763.5643                STO-SS =           0.2402     STORAGE                          
                 DRN =       13272.9944                   DRN =          15.2496     DRN_SYS1                         
                 RIV =      600992.8543                   RIV =        1311.0419     RIV_SYS1                         
                 RIV =       37269.1589                   RIV =          54.1965     RIV_SYS2                         
                 RCH =        5598.9183                   RCH =          63.9387     RCH_MSW                          

           TOTAL OUT =      672897.4902             TOTAL OUT =        1444.6668

            IN - OUT =          -0.2690              IN - OUT =      -7.2575E-04

 PERCENT DISCREPANCY =          -0.00     PERCENT DISCREPANCY =          -0.00




         TIME SUMMARY AT END OF TIME STEP    1 IN STRESS PERIOD  237
                    SECONDS     MINUTES      HOURS       DAYS        YEARS
                    -----------------------------------------------------------
   TIME STEP LENGTH  86400.      1440.0      24.000      1.0000     2.73785E-03
 STRESS PERIOD TIME  86400.      1440.0      24.000      1.0000     2.73785E-03
         TOTAL TIME 2.04768E+07 3.41280E+05  5688.0      237.00     0.64887    


end timestep


start timestep kper="238" kstp="1" mode="normal"

 #Stressperiod Save Options

 BEGIN READING OUTPUT CONTROL FOR STRESS PERIOD 238
      ALL TIME STEPS WILL BE SAVED
      ALL TIME STEPS WILL BE SAVED

 END READING OUTPUT CONTROL FOR STRESS PERIOD 238


 PROCESSING STORAGE PERIOD DATA
 END PROCESSING STORAGE PERIOD DATA


 STRESS PERIOD 238 IS TRANSIENT


 REUSING DRNS FROM LAST STRESS PERIOD

 REUSING RIVS FROM LAST STRESS PERIOD

 REUSING RIVS FROM LAST STRESS PERIOD

 REUSING RCHS FROM LAST STRESS PERIOD
 UBDSV06 SAVING              DRN IN MODEL GWF_1            PACKAGE GWF_1           CONNECTED TO MODEL GWF_1            PACKAGE DRN_SYS1         ON UNIT   1018 AT TIME STEP      1, STRESS PERIOD    238
 UBDSV06 SAVING              RIV IN MODEL GWF_1            PACKAGE GWF_1           CONNECTED TO MODEL GWF_1            PACKAGE RIV_SYS1         ON UNIT   1018 AT TIME STEP      1, STRESS PERIOD    238
 UBDSV06 SAVING              RIV IN MODEL GWF_1            PACKAGE GWF_1           CONNECTED TO MODEL GWF_1            PACKAGE RIV_SYS2         ON UNIT   1018 AT TIME STEP      1, STRESS PERIOD    238
 UBDSV06 SAVING              RCH IN MODEL GWF_1            PACKAGE GWF_1           CONNECTED TO MODEL GWF_1            PACKAGE RCH_MSW          ON UNIT   1018 AT TIME STEP      1, STRESS PERIOD    238

 HEAD WILL BE SAVED ON UNIT 1017 AT END OF TIME STEP    1, STRESS PERIOD  238


  VOLUME BUDGET FOR ENTIRE MODEL AT END OF TIME STEP    1, STRESS PERIOD 238
  ---------------------------------------------------------------------------------------------------

     CUMULATIVE VOLUME      L**3       RATES FOR THIS TIME STEP      L**3/T          PACKAGE NAME    
     ------------------                 ------------------------                     ----------------

           IN:                                      IN:
           ---                                      ---
              STO-SS =      215699.0478                STO-SS =          26.9835     STORAGE                          
                 DRN =           0.0000                   DRN =           0.0000     DRN_SYS1                         
                 RIV =      191456.2670                   RIV =        1238.9459     RIV_SYS1                         
                 RIV =           0.0000                   RIV =           0.0000     RIV_SYS2                         
                 RCH =      267185.2874                   RCH =         177.4518     RCH_MSW                          

            TOTAL IN =      674340.6022              TOTAL IN =        1443.3811

          OUT:                                     OUT:
          ----                                     ----
              STO-SS =       15763.8579                STO-SS =           0.2937     STORAGE                          
                 DRN =       13288.2020                   DRN =          15.2075     DRN_SYS1                         
                 RIV =      602303.1248                   RIV =        1310.2705     RIV_SYS1                         
                 RIV =       37323.2795                   RIV =          54.1206     RIV_SYS2                         
                 RCH =        5662.4067                   RCH =          63.4884     RCH_MSW                          

           TOTAL OUT =      674340.8709             TOTAL OUT =        1443.3807

            IN - OUT =          -0.2687              IN - OUT =       3.6753E-04

 PERCENT DISCREPANCY =          -0.00     PERCENT DISCREPANCY =           0.00




         TIME SUMMARY AT END OF TIME STEP    1 IN STRESS PERIOD  238
                    SECONDS     MINUTES      HOURS       DAYS        YEARS
                    -----------------------------------------------------------
   TIME STEP LENGTH  86400.      1440.0      24.000      1.0000     2.73785E-03
 STRESS PERIOD TIME  86400.      1440.0      24.000      1.0000     2.73785E-03
         TOTAL TIME 2.05632E+07 3.42720E+05  5712.0      238.00     0.65161    


end timestep


start timestep kper="239" kstp="1" mode="normal"

 #Stressperiod Save Options

 BEGIN READING OUTPUT CONTROL FOR STRESS PERIOD 239
      ALL TIME STEPS WILL BE SAVED
      ALL TIME STEPS WILL BE SAVED

 END READING OUTPUT CONTROL FOR STRESS PERIOD 239


 PROCESSING STORAGE PERIOD DATA
 END PROCESSING STORAGE PERIOD DATA


 STRESS PERIOD 239 IS TRANSIENT


 REUSING DRNS FROM LAST STRESS PERIOD

 REUSING RIVS FROM LAST STRESS PERIOD

 REUSING RIVS FROM LAST STRESS PERIOD

 REUSING RCHS FROM LAST STRESS PERIOD
 UBDSV06 SAVING              DRN IN MODEL GWF_1            PACKAGE GWF_1           CONNECTED TO MODEL GWF_1            PACKAGE DRN_SYS1         ON UNIT   1018 AT TIME STEP      1, STRESS PERIOD    239
 UBDSV06 SAVING              RIV IN MODEL GWF_1            PACKAGE GWF_1           CONNECTED TO MODEL GWF_1            PACKAGE RIV_SYS1         ON UNIT   1018 AT TIME STEP      1, STRESS PERIOD    239
 UBDSV06 SAVING              RIV IN MODEL GWF_1            PACKAGE GWF_1           CONNECTED TO MODEL GWF_1            PACKAGE RIV_SYS2         ON UNIT   1018 AT TIME STEP      1, STRESS PERIOD    239
 UBDSV06 SAVING              RCH IN MODEL GWF_1            PACKAGE GWF_1           CONNECTED TO MODEL GWF_1            PACKAGE RCH_MSW          ON UNIT   1018 AT TIME STEP      1, STRESS PERIOD    239

 HEAD WILL BE SAVED ON UNIT 1017 AT END OF TIME STEP    1, STRESS PERIOD  239


  VOLUME BUDGET FOR ENTIRE MODEL AT END OF TIME STEP    1, STRESS PERIOD 239
  ---------------------------------------------------------------------------------------------------

     CUMULATIVE VOLUME      L**3       RATES FOR THIS TIME STEP      L**3/T          PACKAGE NAME    
     ------------------                 ------------------------                     ----------------

           IN:                                      IN:
           ---                                      ---
              STO-SS =      215724.5811                STO-SS =          25.5332     STORAGE                          
                 DRN =           0.0000                   DRN =           0.0000     DRN_SYS1                         
                 RIV =      192695.3916                   RIV =        1239.1245     RIV_SYS1                         
                 RIV =           0.0000                   RIV =           0.0000     RIV_SYS2                         
                 RCH =      267363.0416                   RCH =         177.7542     RCH_MSW                          

            TOTAL IN =      675783.0142              TOTAL IN =        1442.4120

          OUT:                                     OUT:
          ----                                     ----
              STO-SS =       15763.9586                STO-SS =           0.1007     STORAGE                          
                 DRN =       13303.3701                   DRN =          15.1681     DRN_SYS1                         
                 RIV =      603612.6517                   RIV =        1309.5269     RIV_SYS1                         
                 RIV =       37377.3293                   RIV =          54.0498     RIV_SYS2                         
                 RCH =        5725.9738                   RCH =          63.5672     RCH_MSW                          

           TOTAL OUT =      675783.2835             TOTAL OUT =        1442.4126

            IN - OUT =          -0.2692              IN - OUT =      -5.7937E-04

 PERCENT DISCREPANCY =          -0.00     PERCENT DISCREPANCY =          -0.00




         TIME SUMMARY AT END OF TIME STEP    1 IN STRESS PERIOD  239
                    SECONDS     MINUTES      HOURS       DAYS        YEARS
                    -----------------------------------------------------------
   TIME STEP LENGTH  86400.      1440.0      24.000      1.0000     2.73785E-03
 STRESS PERIOD TIME  86400.      1440.0      24.000      1.0000     2.73785E-03
         TOTAL TIME 2.06496E+07 3.44160E+05  5736.0      239.00     0.65435    


end timestep


start timestep kper="240" kstp="1" mode="normal"

 #Stressperiod Save Options

 BEGIN READING OUTPUT CONTROL FOR STRESS PERIOD 240
      ALL TIME STEPS WILL BE SAVED
      ALL TIME STEPS WILL BE SAVED

 END READING OUTPUT CONTROL FOR STRESS PERIOD 240


 PROCESSING STORAGE PERIOD DATA
 END PROCESSING STORAGE PERIOD DATA


 STRESS PERIOD 240 IS TRANSIENT


 REUSING DRNS FROM LAST STRESS PERIOD

 REUSING RIVS FROM LAST STRESS PERIOD

 REUSING RIVS FROM LAST STRESS PERIOD

 REUSING RCHS FROM LAST STRESS PERIOD
 UBDSV06 SAVING              DRN IN MODEL GWF_1            PACKAGE GWF_1           CONNECTED TO MODEL GWF_1            PACKAGE DRN_SYS1         ON UNIT   1018 AT TIME STEP      1, STRESS PERIOD    240
 UBDSV06 SAVING              RIV IN MODEL GWF_1            PACKAGE GWF_1           CONNECTED TO MODEL GWF_1            PACKAGE RIV_SYS1         ON UNIT   1018 AT TIME STEP      1, STRESS PERIOD    240
 UBDSV06 SAVING              RIV IN MODEL GWF_1            PACKAGE GWF_1           CONNECTED TO MODEL GWF_1            PACKAGE RIV_SYS2         ON UNIT   1018 AT TIME STEP      1, STRESS PERIOD    240
 UBDSV06 SAVING              RCH IN MODEL GWF_1            PACKAGE GWF_1           CONNECTED TO MODEL GWF_1            PACKAGE RCH_MSW          ON UNIT   1018 AT TIME STEP      1, STRESS PERIOD    240

 HEAD WILL BE SAVED ON UNIT 1017 AT END OF TIME STEP    1, STRESS PERIOD  240


  VOLUME BUDGET FOR ENTIRE MODEL AT END OF TIME STEP    1, STRESS PERIOD 240
  ---------------------------------------------------------------------------------------------------

     CUMULATIVE VOLUME      L**3       RATES FOR THIS TIME STEP      L**3/T          PACKAGE NAME    
     ------------------                 ------------------------                     ----------------

           IN:                                      IN:
           ---                                      ---
              STO-SS =      215751.6461                STO-SS =          27.0650     STORAGE                          
                 DRN =           0.0000                   DRN =           0.0000     DRN_SYS1                         
                 RIV =      193934.9689                   RIV =        1239.5773     RIV_SYS1                         
                 RIV =           0.0000                   RIV =           0.0000     RIV_SYS2                         
                 RCH =      267538.6163                   RCH =         175.5747     RCH_MSW                          

            TOTAL IN =      677225.2312              TOTAL IN =        1442.2170

          OUT:                                     OUT:
          ----                                     ----
              STO-SS =       15763.9689                STO-SS =       1.0319E-02     STORAGE                          
                 DRN =       13318.4983                   DRN =          15.1283     DRN_SYS1                         
                 RIV =      604921.3406                   RIV =        1308.6889     RIV_SYS1                         
                 RIV =       37431.3126                   RIV =          53.9833     RIV_SYS2                         
                 RCH =        5790.3806                   RCH =          64.4068     RCH_MSW                          

           TOTAL OUT =      677225.5011             TOTAL OUT =        1442.2176

            IN - OUT =          -0.2699              IN - OUT =      -6.0846E-04

 PERCENT DISCREPANCY =          -0.00     PERCENT DISCREPANCY =          -0.00




         TIME SUMMARY AT END OF TIME STEP    1 IN STRESS PERIOD  240
                    SECONDS     MINUTES      HOURS       DAYS        YEARS
                    -----------------------------------------------------------
   TIME STEP LENGTH  86400.      1440.0      24.000      1.0000     2.73785E-03
 STRESS PERIOD TIME  86400.      1440.0      24.000      1.0000     2.73785E-03
         TOTAL TIME 2.07360E+07 3.45600E+05  5760.0      240.00     0.65708    


end timestep


start timestep kper="241" kstp="1" mode="normal"

 #Stressperiod Save Options

 BEGIN READING OUTPUT CONTROL FOR STRESS PERIOD 241
      ALL TIME STEPS WILL BE SAVED
      ALL TIME STEPS WILL BE SAVED

 END READING OUTPUT CONTROL FOR STRESS PERIOD 241


 PROCESSING STORAGE PERIOD DATA
 END PROCESSING STORAGE PERIOD DATA


 STRESS PERIOD 241 IS TRANSIENT


 REUSING DRNS FROM LAST STRESS PERIOD

 REUSING RIVS FROM LAST STRESS PERIOD

 REUSING RIVS FROM LAST STRESS PERIOD

 REUSING RCHS FROM LAST STRESS PERIOD
 UBDSV06 SAVING              DRN IN MODEL GWF_1            PACKAGE GWF_1           CONNECTED TO MODEL GWF_1            PACKAGE DRN_SYS1         ON UNIT   1018 AT TIME STEP      1, STRESS PERIOD    241
 UBDSV06 SAVING              RIV IN MODEL GWF_1            PACKAGE GWF_1           CONNECTED TO MODEL GWF_1            PACKAGE RIV_SYS1         ON UNIT   1018 AT TIME STEP      1, STRESS PERIOD    241
 UBDSV06 SAVING              RIV IN MODEL GWF_1            PACKAGE GWF_1           CONNECTED TO MODEL GWF_1            PACKAGE RIV_SYS2         ON UNIT   1018 AT TIME STEP      1, STRESS PERIOD    241
 UBDSV06 SAVING              RCH IN MODEL GWF_1            PACKAGE GWF_1           CONNECTED TO MODEL GWF_1            PACKAGE RCH_MSW          ON UNIT   1018 AT TIME STEP      1, STRESS PERIOD    241

 HEAD WILL BE SAVED ON UNIT 1017 AT END OF TIME STEP    1, STRESS PERIOD  241


  VOLUME BUDGET FOR ENTIRE MODEL AT END OF TIME STEP    1, STRESS PERIOD 241
  ---------------------------------------------------------------------------------------------------

     CUMULATIVE VOLUME      L**3       RATES FOR THIS TIME STEP      L**3/T          PACKAGE NAME    
     ------------------                 ------------------------                     ----------------

           IN:                                      IN:
           ---                                      ---
              STO-SS =      215777.6912                STO-SS =          26.0451     STORAGE                          
                 DRN =           0.0000                   DRN =           0.0000     DRN_SYS1                         
                 RIV =      195174.9578                   RIV =        1239.9889     RIV_SYS1                         
                 RIV =           0.0000                   RIV =           0.0000     RIV_SYS2                         
                 RCH =      267714.1950                   RCH =         175.5788     RCH_MSW                          

            TOTAL IN =      678666.8440              TOTAL IN =        1441.6128

          OUT:                                     OUT:
          ----                                     ----
              STO-SS =       15763.9765                STO-SS =       7.6142E-03     STORAGE                          
                 DRN =       13333.5888                   DRN =          15.0904     DRN_SYS1                         
                 RIV =      606229.2649                   RIV =        1307.9243     RIV_SYS1                         
                 RIV =       37485.2334                   RIV =          53.9207     RIV_SYS2                         
                 RCH =        5855.0509                   RCH =          64.6703     RCH_MSW                          

           TOTAL OUT =      678667.1144             TOTAL OUT =        1441.6133

            IN - OUT =          -0.2704              IN - OUT =      -5.4608E-04

 PERCENT DISCREPANCY =          -0.00     PERCENT DISCREPANCY =          -0.00




         TIME SUMMARY AT END OF TIME STEP    1 IN STRESS PERIOD  241
                    SECONDS     MINUTES      HOURS       DAYS        YEARS
                    -----------------------------------------------------------
   TIME STEP LENGTH  86400.      1440.0      24.000      1.0000     2.73785E-03
 STRESS PERIOD TIME  86400.      1440.0      24.000      1.0000     2.73785E-03
         TOTAL TIME 2.08224E+07 3.47040E+05  5784.0      241.00     0.65982    


end timestep


start timestep kper="242" kstp="1" mode="normal"

 #Stressperiod Save Options

 BEGIN READING OUTPUT CONTROL FOR STRESS PERIOD 242
      ALL TIME STEPS WILL BE SAVED
      ALL TIME STEPS WILL BE SAVED

 END READING OUTPUT CONTROL FOR STRESS PERIOD 242


 PROCESSING STORAGE PERIOD DATA
 END PROCESSING STORAGE PERIOD DATA


 STRESS PERIOD 242 IS TRANSIENT


 REUSING DRNS FROM LAST STRESS PERIOD

 REUSING RIVS FROM LAST STRESS PERIOD

 REUSING RIVS FROM LAST STRESS PERIOD

 REUSING RCHS FROM LAST STRESS PERIOD
 UBDSV06 SAVING              DRN IN MODEL GWF_1            PACKAGE GWF_1           CONNECTED TO MODEL GWF_1            PACKAGE DRN_SYS1         ON UNIT   1018 AT TIME STEP      1, STRESS PERIOD    242
 UBDSV06 SAVING              RIV IN MODEL GWF_1            PACKAGE GWF_1           CONNECTED TO MODEL GWF_1            PACKAGE RIV_SYS1         ON UNIT   1018 AT TIME STEP      1, STRESS PERIOD    242
 UBDSV06 SAVING              RIV IN MODEL GWF_1            PACKAGE GWF_1           CONNECTED TO MODEL GWF_1            PACKAGE RIV_SYS2         ON UNIT   1018 AT TIME STEP      1, STRESS PERIOD    242
 UBDSV06 SAVING              RCH IN MODEL GWF_1            PACKAGE GWF_1           CONNECTED TO MODEL GWF_1            PACKAGE RCH_MSW          ON UNIT   1018 AT TIME STEP      1, STRESS PERIOD    242

 HEAD WILL BE SAVED ON UNIT 1017 AT END OF TIME STEP    1, STRESS PERIOD  242


  VOLUME BUDGET FOR ENTIRE MODEL AT END OF TIME STEP    1, STRESS PERIOD 242
  ---------------------------------------------------------------------------------------------------

     CUMULATIVE VOLUME      L**3       RATES FOR THIS TIME STEP      L**3/T          PACKAGE NAME    
     ------------------                 ------------------------                     ----------------

           IN:                                      IN:
           ---                                      ---
              STO-SS =      215802.2790                STO-SS =          24.5878     STORAGE                          
                 DRN =           0.0000                   DRN =           0.0000     DRN_SYS1                         
                 RIV =      196415.3069                   RIV =        1240.3491     RIV_SYS1                         
                 RIV =           0.0000                   RIV =           0.0000     RIV_SYS2                         
                 RCH =      267890.2814                   RCH =         176.0864     RCH_MSW                          

            TOTAL IN =      680107.8673              TOTAL IN =        1441.0233

          OUT:                                     OUT:
          ----                                     ----
              STO-SS =       15763.9850                STO-SS =       8.4692E-03     STORAGE                          
                 DRN =       13348.6440                   DRN =          15.0553     DRN_SYS1                         
                 RIV =      607536.4824                   RIV =        1307.2175     RIV_SYS1                         
                 RIV =       37539.0945                   RIV =          53.8611     RIV_SYS2                         
                 RCH =        5919.9324                   RCH =          64.8815     RCH_MSW                          

           TOTAL OUT =      680108.1382             TOTAL OUT =        1441.0238

            IN - OUT =          -0.2709              IN - OUT =      -4.7081E-04

 PERCENT DISCREPANCY =          -0.00     PERCENT DISCREPANCY =          -0.00




         TIME SUMMARY AT END OF TIME STEP    1 IN STRESS PERIOD  242
                    SECONDS     MINUTES      HOURS       DAYS        YEARS
                    -----------------------------------------------------------
   TIME STEP LENGTH  86400.      1440.0      24.000      1.0000     2.73785E-03
 STRESS PERIOD TIME  86400.      1440.0      24.000      1.0000     2.73785E-03
         TOTAL TIME 2.09088E+07 3.48480E+05  5808.0      242.00     0.66256    


end timestep


start timestep kper="243" kstp="1" mode="normal"

 #Stressperiod Save Options

 BEGIN READING OUTPUT CONTROL FOR STRESS PERIOD 243
      ALL TIME STEPS WILL BE SAVED
      ALL TIME STEPS WILL BE SAVED

 END READING OUTPUT CONTROL FOR STRESS PERIOD 243


 PROCESSING STORAGE PERIOD DATA
 END PROCESSING STORAGE PERIOD DATA


 STRESS PERIOD 243 IS TRANSIENT


 REUSING DRNS FROM LAST STRESS PERIOD

 REUSING RIVS FROM LAST STRESS PERIOD

 REUSING RIVS FROM LAST STRESS PERIOD

 REUSING RCHS FROM LAST STRESS PERIOD
 UBDSV06 SAVING              DRN IN MODEL GWF_1            PACKAGE GWF_1           CONNECTED TO MODEL GWF_1            PACKAGE DRN_SYS1         ON UNIT   1018 AT TIME STEP      1, STRESS PERIOD    243
 UBDSV06 SAVING              RIV IN MODEL GWF_1            PACKAGE GWF_1           CONNECTED TO MODEL GWF_1            PACKAGE RIV_SYS1         ON UNIT   1018 AT TIME STEP      1, STRESS PERIOD    243
 UBDSV06 SAVING              RIV IN MODEL GWF_1            PACKAGE GWF_1           CONNECTED TO MODEL GWF_1            PACKAGE RIV_SYS2         ON UNIT   1018 AT TIME STEP      1, STRESS PERIOD    243
 UBDSV06 SAVING              RCH IN MODEL GWF_1            PACKAGE GWF_1           CONNECTED TO MODEL GWF_1            PACKAGE RCH_MSW          ON UNIT   1018 AT TIME STEP      1, STRESS PERIOD    243

 HEAD WILL BE SAVED ON UNIT 1017 AT END OF TIME STEP    1, STRESS PERIOD  243


  VOLUME BUDGET FOR ENTIRE MODEL AT END OF TIME STEP    1, STRESS PERIOD 243
  ---------------------------------------------------------------------------------------------------

     CUMULATIVE VOLUME      L**3       RATES FOR THIS TIME STEP      L**3/T          PACKAGE NAME    
     ------------------                 ------------------------                     ----------------

           IN:                                      IN:
           ---                                      ---
              STO-SS =      215824.0683                STO-SS =          21.7893     STORAGE                          
                 DRN =           0.0000                   DRN =           0.0000     DRN_SYS1                         
                 RIV =      197655.9704                   RIV =        1240.6635     RIV_SYS1                         
                 RIV =           0.0000                   RIV =           0.0000     RIV_SYS2                         
                 RCH =      268068.2991                   RCH =         178.0177     RCH_MSW                          

            TOTAL IN =      681548.3378              TOTAL IN =        1440.4705

          OUT:                                     OUT:
          ----                                     ----
              STO-SS =       15763.9949                STO-SS =       9.8950E-03     STORAGE                          
                 DRN =       13363.6671                   DRN =          15.0231     DRN_SYS1                         
                 RIV =      608843.0430                   RIV =        1306.5607     RIV_SYS1                         
                 RIV =       37592.8993                   RIV =          53.8048     RIV_SYS2                         
                 RCH =        5985.0048                   RCH =          65.0724     RCH_MSW                          

           TOTAL OUT =      681548.6091             TOTAL OUT =        1440.4709

            IN - OUT =          -0.2713              IN - OUT =      -3.8441E-04

 PERCENT DISCREPANCY =          -0.00     PERCENT DISCREPANCY =          -0.00




         TIME SUMMARY AT END OF TIME STEP    1 IN STRESS PERIOD  243
                    SECONDS     MINUTES      HOURS       DAYS        YEARS
                    -----------------------------------------------------------
   TIME STEP LENGTH  86400.      1440.0      24.000      1.0000     2.73785E-03
 STRESS PERIOD TIME  86400.      1440.0      24.000      1.0000     2.73785E-03
         TOTAL TIME 2.09952E+07 3.49920E+05  5832.0      243.00     0.66530    


end timestep


start timestep kper="244" kstp="1" mode="normal"

 #Stressperiod Save Options

 BEGIN READING OUTPUT CONTROL FOR STRESS PERIOD 244
      ALL TIME STEPS WILL BE SAVED
      ALL TIME STEPS WILL BE SAVED

 END READING OUTPUT CONTROL FOR STRESS PERIOD 244


 PROCESSING STORAGE PERIOD DATA
 END PROCESSING STORAGE PERIOD DATA


 STRESS PERIOD 244 IS TRANSIENT


 REUSING DRNS FROM LAST STRESS PERIOD

 REUSING RIVS FROM LAST STRESS PERIOD

 REUSING RIVS FROM LAST STRESS PERIOD

 REUSING RCHS FROM LAST STRESS PERIOD
 UBDSV06 SAVING              DRN IN MODEL GWF_1            PACKAGE GWF_1           CONNECTED TO MODEL GWF_1            PACKAGE DRN_SYS1         ON UNIT   1018 AT TIME STEP      1, STRESS PERIOD    244
 UBDSV06 SAVING              RIV IN MODEL GWF_1            PACKAGE GWF_1           CONNECTED TO MODEL GWF_1            PACKAGE RIV_SYS1         ON UNIT   1018 AT TIME STEP      1, STRESS PERIOD    244
 UBDSV06 SAVING              RIV IN MODEL GWF_1            PACKAGE GWF_1           CONNECTED TO MODEL GWF_1            PACKAGE RIV_SYS2         ON UNIT   1018 AT TIME STEP      1, STRESS PERIOD    244
 UBDSV06 SAVING              RCH IN MODEL GWF_1            PACKAGE GWF_1           CONNECTED TO MODEL GWF_1            PACKAGE RCH_MSW          ON UNIT   1018 AT TIME STEP      1, STRESS PERIOD    244

 HEAD WILL BE SAVED ON UNIT 1017 AT END OF TIME STEP    1, STRESS PERIOD  244


  VOLUME BUDGET FOR ENTIRE MODEL AT END OF TIME STEP    1, STRESS PERIOD 244
  ---------------------------------------------------------------------------------------------------

     CUMULATIVE VOLUME      L**3       RATES FOR THIS TIME STEP      L**3/T          PACKAGE NAME    
     ------------------                 ------------------------                     ----------------

           IN:                                      IN:
           ---                                      ---
              STO-SS =      215838.7659                STO-SS =          14.6976     STORAGE                          
                 DRN =           0.0000                   DRN =           0.0000     DRN_SYS1                         
                 RIV =      198896.8898                   RIV =        1240.9194     RIV_SYS1                         
                 RIV =           0.0000                   RIV =           0.0000     RIV_SYS2                         
                 RCH =      268254.4839                   RCH =         186.1849     RCH_MSW                          

            TOTAL IN =      682990.1397              TOTAL IN =        1441.8019

          OUT:                                     OUT:
          ----                                     ----
              STO-SS =       15765.7854                STO-SS =           1.7905     STORAGE                          
                 DRN =       13378.6720                   DRN =          15.0049     DRN_SYS1                         
                 RIV =      610149.1173                   RIV =        1306.0743     RIV_SYS1                         
                 RIV =       37646.6607                   RIV =          53.7615     RIV_SYS2                         
                 RCH =        6050.1800                   RCH =          65.1752     RCH_MSW                          

           TOTAL OUT =      682990.4155             TOTAL OUT =        1441.8064

            IN - OUT =          -0.2758              IN - OUT =      -4.5519E-03

 PERCENT DISCREPANCY =          -0.00     PERCENT DISCREPANCY =          -0.00




         TIME SUMMARY AT END OF TIME STEP    1 IN STRESS PERIOD  244
                    SECONDS     MINUTES      HOURS       DAYS        YEARS
                    -----------------------------------------------------------
   TIME STEP LENGTH  86400.      1440.0      24.000      1.0000     2.73785E-03
 STRESS PERIOD TIME  86400.      1440.0      24.000      1.0000     2.73785E-03
         TOTAL TIME 2.10816E+07 3.51360E+05  5856.0      244.00     0.66804    


end timestep


start timestep kper="245" kstp="1" mode="normal"

 #Stressperiod Save Options

 BEGIN READING OUTPUT CONTROL FOR STRESS PERIOD 245
      ALL TIME STEPS WILL BE SAVED
      ALL TIME STEPS WILL BE SAVED

 END READING OUTPUT CONTROL FOR STRESS PERIOD 245


 PROCESSING STORAGE PERIOD DATA
 END PROCESSING STORAGE PERIOD DATA


 STRESS PERIOD 245 IS TRANSIENT


 REUSING DRNS FROM LAST STRESS PERIOD

 REUSING RIVS FROM LAST STRESS PERIOD

 REUSING RIVS FROM LAST STRESS PERIOD

 REUSING RCHS FROM LAST STRESS PERIOD
 UBDSV06 SAVING              DRN IN MODEL GWF_1            PACKAGE GWF_1           CONNECTED TO MODEL GWF_1            PACKAGE DRN_SYS1         ON UNIT   1018 AT TIME STEP      1, STRESS PERIOD    245
 UBDSV06 SAVING              RIV IN MODEL GWF_1            PACKAGE GWF_1           CONNECTED TO MODEL GWF_1            PACKAGE RIV_SYS1         ON UNIT   1018 AT TIME STEP      1, STRESS PERIOD    245
 UBDSV06 SAVING              RIV IN MODEL GWF_1            PACKAGE GWF_1           CONNECTED TO MODEL GWF_1            PACKAGE RIV_SYS2         ON UNIT   1018 AT TIME STEP      1, STRESS PERIOD    245
 UBDSV06 SAVING              RCH IN MODEL GWF_1            PACKAGE GWF_1           CONNECTED TO MODEL GWF_1            PACKAGE RCH_MSW          ON UNIT   1018 AT TIME STEP      1, STRESS PERIOD    245

 HEAD WILL BE SAVED ON UNIT 1017 AT END OF TIME STEP    1, STRESS PERIOD  245


  VOLUME BUDGET FOR ENTIRE MODEL AT END OF TIME STEP    1, STRESS PERIOD 245
  ---------------------------------------------------------------------------------------------------

     CUMULATIVE VOLUME      L**3       RATES FOR THIS TIME STEP      L**3/T          PACKAGE NAME    
     ------------------                 ------------------------                     ----------------

           IN:                                      IN:
           ---                                      ---
              STO-SS =      215854.8553                STO-SS =          16.0893     STORAGE                          
                 DRN =           0.0000                   DRN =           0.0000     DRN_SYS1                         
                 RIV =      200138.0189                   RIV =        1241.1291     RIV_SYS1                         
                 RIV =           0.0000                   RIV =           0.0000     RIV_SYS2                         
                 RCH =      268437.4839                   RCH =         182.9999     RCH_MSW                          

            TOTAL IN =      684430.3581              TOTAL IN =        1440.2184

          OUT:                                     OUT:
          ----                                     ----
              STO-SS =       15766.3788                STO-SS =           0.5933     STORAGE                          
                 DRN =       13393.6519                   DRN =          14.9799     DRN_SYS1                         
                 RIV =      611454.7557                   RIV =        1305.6384     RIV_SYS1                         
                 RIV =       37700.3790                   RIV =          53.7183     RIV_SYS2                         
                 RCH =        6115.4715                   RCH =          65.2914     RCH_MSW                          

           TOTAL OUT =      684430.6369             TOTAL OUT =        1440.2214

            IN - OUT =          -0.2788              IN - OUT =      -2.9662E-03

 PERCENT DISCREPANCY =          -0.00     PERCENT DISCREPANCY =          -0.00




         TIME SUMMARY AT END OF TIME STEP    1 IN STRESS PERIOD  245
                    SECONDS     MINUTES      HOURS       DAYS        YEARS
                    -----------------------------------------------------------
   TIME STEP LENGTH  86400.      1440.0      24.000      1.0000     2.73785E-03
 STRESS PERIOD TIME  86400.      1440.0      24.000      1.0000     2.73785E-03
         TOTAL TIME 2.11680E+07 3.52800E+05  5880.0      245.00     0.67077    


end timestep


start timestep kper="246" kstp="1" mode="normal"

 #Stressperiod Save Options

 BEGIN READING OUTPUT CONTROL FOR STRESS PERIOD 246
      ALL TIME STEPS WILL BE SAVED
      ALL TIME STEPS WILL BE SAVED

 END READING OUTPUT CONTROL FOR STRESS PERIOD 246


 PROCESSING STORAGE PERIOD DATA
 END PROCESSING STORAGE PERIOD DATA


 STRESS PERIOD 246 IS TRANSIENT


 REUSING DRNS FROM LAST STRESS PERIOD

 REUSING RIVS FROM LAST STRESS PERIOD

 REUSING RIVS FROM LAST STRESS PERIOD

 REUSING RCHS FROM LAST STRESS PERIOD
 UBDSV06 SAVING              DRN IN MODEL GWF_1            PACKAGE GWF_1           CONNECTED TO MODEL GWF_1            PACKAGE DRN_SYS1         ON UNIT   1018 AT TIME STEP      1, STRESS PERIOD    246
 UBDSV06 SAVING              RIV IN MODEL GWF_1            PACKAGE GWF_1           CONNECTED TO MODEL GWF_1            PACKAGE RIV_SYS1         ON UNIT   1018 AT TIME STEP      1, STRESS PERIOD    246
 UBDSV06 SAVING              RIV IN MODEL GWF_1            PACKAGE GWF_1           CONNECTED TO MODEL GWF_1            PACKAGE RIV_SYS2         ON UNIT   1018 AT TIME STEP      1, STRESS PERIOD    246
 UBDSV06 SAVING              RCH IN MODEL GWF_1            PACKAGE GWF_1           CONNECTED TO MODEL GWF_1            PACKAGE RCH_MSW          ON UNIT   1018 AT TIME STEP      1, STRESS PERIOD    246

 HEAD WILL BE SAVED ON UNIT 1017 AT END OF TIME STEP    1, STRESS PERIOD  246


  VOLUME BUDGET FOR ENTIRE MODEL AT END OF TIME STEP    1, STRESS PERIOD 246
  ---------------------------------------------------------------------------------------------------

     CUMULATIVE VOLUME      L**3       RATES FOR THIS TIME STEP      L**3/T          PACKAGE NAME    
     ------------------                 ------------------------                     ----------------

           IN:                                      IN:
           ---                                      ---
              STO-SS =      215869.6983                STO-SS =          14.8430     STORAGE                          
                 DRN =           0.0000                   DRN =           0.0000     DRN_SYS1                         
                 RIV =      201379.1727                   RIV =        1241.1537     RIV_SYS1                         
                 RIV =           0.0000                   RIV =           0.0000     RIV_SYS2                         
                 RCH =      268621.8662                   RCH =         184.3823     RCH_MSW                          

            TOTAL IN =      685870.7372              TOTAL IN =        1440.3791

          OUT:                                     OUT:
          ----                                     ----
              STO-SS =       15768.3105                STO-SS =           1.9318     STORAGE                          
                 DRN =       13408.6111                   DRN =          14.9592     DRN_SYS1                         
                 RIV =      612760.0343                   RIV =        1305.2785     RIV_SYS1                         
                 RIV =       37754.0578                   RIV =          53.6788     RIV_SYS2                         
                 RCH =        6180.0075                   RCH =          64.5361     RCH_MSW                          

           TOTAL OUT =      685871.0212             TOTAL OUT =        1440.3843

            IN - OUT =          -0.2840              IN - OUT =      -5.2439E-03

 PERCENT DISCREPANCY =          -0.00     PERCENT DISCREPANCY =          -0.00




         TIME SUMMARY AT END OF TIME STEP    1 IN STRESS PERIOD  246
                    SECONDS     MINUTES      HOURS       DAYS        YEARS
                    -----------------------------------------------------------
   TIME STEP LENGTH  86400.      1440.0      24.000      1.0000     2.73785E-03
 STRESS PERIOD TIME  86400.      1440.0      24.000      1.0000     2.73785E-03
         TOTAL TIME 2.12544E+07 3.54240E+05  5904.0      246.00     0.67351    


end timestep


start timestep kper="247" kstp="1" mode="normal"

 #Stressperiod Save Options

 BEGIN READING OUTPUT CONTROL FOR STRESS PERIOD 247
      ALL TIME STEPS WILL BE SAVED
      ALL TIME STEPS WILL BE SAVED

 END READING OUTPUT CONTROL FOR STRESS PERIOD 247


 PROCESSING STORAGE PERIOD DATA
 END PROCESSING STORAGE PERIOD DATA


 STRESS PERIOD 247 IS TRANSIENT


 REUSING DRNS FROM LAST STRESS PERIOD

 REUSING RIVS FROM LAST STRESS PERIOD

 REUSING RIVS FROM LAST STRESS PERIOD

 REUSING RCHS FROM LAST STRESS PERIOD
 UBDSV06 SAVING              DRN IN MODEL GWF_1            PACKAGE GWF_1           CONNECTED TO MODEL GWF_1            PACKAGE DRN_SYS1         ON UNIT   1018 AT TIME STEP      1, STRESS PERIOD    247
 UBDSV06 SAVING              RIV IN MODEL GWF_1            PACKAGE GWF_1           CONNECTED TO MODEL GWF_1            PACKAGE RIV_SYS1         ON UNIT   1018 AT TIME STEP      1, STRESS PERIOD    247
 UBDSV06 SAVING              RIV IN MODEL GWF_1            PACKAGE GWF_1           CONNECTED TO MODEL GWF_1            PACKAGE RIV_SYS2         ON UNIT   1018 AT TIME STEP      1, STRESS PERIOD    247
 UBDSV06 SAVING              RCH IN MODEL GWF_1            PACKAGE GWF_1           CONNECTED TO MODEL GWF_1            PACKAGE RCH_MSW          ON UNIT   1018 AT TIME STEP      1, STRESS PERIOD    247

 HEAD WILL BE SAVED ON UNIT 1017 AT END OF TIME STEP    1, STRESS PERIOD  247


  VOLUME BUDGET FOR ENTIRE MODEL AT END OF TIME STEP    1, STRESS PERIOD 247
  ---------------------------------------------------------------------------------------------------

     CUMULATIVE VOLUME      L**3       RATES FOR THIS TIME STEP      L**3/T          PACKAGE NAME    
     ------------------                 ------------------------                     ----------------

           IN:                                      IN:
           ---                                      ---
              STO-SS =      215882.3849                STO-SS =          12.6866     STORAGE                          
                 DRN =           0.0000                   DRN =           0.0000     DRN_SYS1                         
                 RIV =      202620.0594                   RIV =        1240.8867     RIV_SYS1                         
                 RIV =           0.0000                   RIV =           0.0000     RIV_SYS2                         
                 RCH =      268807.6060                   RCH =         185.7398     RCH_MSW                          

            TOTAL IN =      687310.0503              TOTAL IN =        1439.3131

          OUT:                                     OUT:
          ----                                     ----
              STO-SS =       15771.0370                STO-SS =           2.7265     STORAGE                          
                 DRN =       13423.5502                   DRN =          14.9391     DRN_SYS1                         
                 RIV =      614065.0591                   RIV =        1305.0248     RIV_SYS1                         
                 RIV =       37807.7958                   RIV =          53.7380     RIV_SYS2                         
                 RCH =        6242.8969                   RCH =          62.8894     RCH_MSW                          

           TOTAL OUT =      687310.3390             TOTAL OUT =        1439.3178

            IN - OUT =          -0.2888              IN - OUT =      -4.7333E-03

 PERCENT DISCREPANCY =          -0.00     PERCENT DISCREPANCY =          -0.00




         TIME SUMMARY AT END OF TIME STEP    1 IN STRESS PERIOD  247
                    SECONDS     MINUTES      HOURS       DAYS        YEARS
                    -----------------------------------------------------------
   TIME STEP LENGTH  86400.      1440.0      24.000      1.0000     2.73785E-03
 STRESS PERIOD TIME  86400.      1440.0      24.000      1.0000     2.73785E-03
         TOTAL TIME 2.13408E+07 3.55680E+05  5928.0      247.00     0.67625    


end timestep


start timestep kper="248" kstp="1" mode="normal"

 #Stressperiod Save Options

 BEGIN READING OUTPUT CONTROL FOR STRESS PERIOD 248
      ALL TIME STEPS WILL BE SAVED
      ALL TIME STEPS WILL BE SAVED

 END READING OUTPUT CONTROL FOR STRESS PERIOD 248


 PROCESSING STORAGE PERIOD DATA
 END PROCESSING STORAGE PERIOD DATA


 STRESS PERIOD 248 IS TRANSIENT


 REUSING DRNS FROM LAST STRESS PERIOD

 REUSING RIVS FROM LAST STRESS PERIOD

 REUSING RIVS FROM LAST STRESS PERIOD

 REUSING RCHS FROM LAST STRESS PERIOD
 UBDSV06 SAVING              DRN IN MODEL GWF_1            PACKAGE GWF_1           CONNECTED TO MODEL GWF_1            PACKAGE DRN_SYS1         ON UNIT   1018 AT TIME STEP      1, STRESS PERIOD    248
 UBDSV06 SAVING              RIV IN MODEL GWF_1            PACKAGE GWF_1           CONNECTED TO MODEL GWF_1            PACKAGE RIV_SYS1         ON UNIT   1018 AT TIME STEP      1, STRESS PERIOD    248
 UBDSV06 SAVING              RIV IN MODEL GWF_1            PACKAGE GWF_1           CONNECTED TO MODEL GWF_1            PACKAGE RIV_SYS2         ON UNIT   1018 AT TIME STEP      1, STRESS PERIOD    248
 UBDSV06 SAVING              RCH IN MODEL GWF_1            PACKAGE GWF_1           CONNECTED TO MODEL GWF_1            PACKAGE RCH_MSW          ON UNIT   1018 AT TIME STEP      1, STRESS PERIOD    248

 HEAD WILL BE SAVED ON UNIT 1017 AT END OF TIME STEP    1, STRESS PERIOD  248


  VOLUME BUDGET FOR ENTIRE MODEL AT END OF TIME STEP    1, STRESS PERIOD 248
  ---------------------------------------------------------------------------------------------------

     CUMULATIVE VOLUME      L**3       RATES FOR THIS TIME STEP      L**3/T          PACKAGE NAME    
     ------------------                 ------------------------                     ----------------

           IN:                                      IN:
           ---                                      ---
              STO-SS =      215892.2912                STO-SS =           9.9064     STORAGE                          
                 DRN =           0.0000                   DRN =           0.0000     DRN_SYS1                         
                 RIV =      203860.0274                   RIV =        1239.9680     RIV_SYS1                         
                 RIV =           0.0000                   RIV =           0.0000     RIV_SYS2                         
                 RCH =      268995.6677                   RCH =         188.0617     RCH_MSW                          

            TOTAL IN =      688747.9863              TOTAL IN =        1437.9360

          OUT:                                     OUT:
          ----                                     ----
              STO-SS =       15776.8885                STO-SS =           5.8516     STORAGE                          
                 DRN =       13438.4863                   DRN =          14.9360     DRN_SYS1                         
                 RIV =      615370.2490                   RIV =        1305.1900     RIV_SYS1                         
                 RIV =       37861.4688                   RIV =          53.6730     RIV_SYS2                         
                 RCH =        6301.1862                   RCH =          58.2892     RCH_MSW                          

           TOTAL OUT =      688748.2788             TOTAL OUT =        1437.9398

            IN - OUT =          -0.2926              IN - OUT =      -3.8074E-03

 PERCENT DISCREPANCY =          -0.00     PERCENT DISCREPANCY =          -0.00




         TIME SUMMARY AT END OF TIME STEP    1 IN STRESS PERIOD  248
                    SECONDS     MINUTES      HOURS       DAYS        YEARS
                    -----------------------------------------------------------
   TIME STEP LENGTH  86400.      1440.0      24.000      1.0000     2.73785E-03
 STRESS PERIOD TIME  86400.      1440.0      24.000      1.0000     2.73785E-03
         TOTAL TIME 2.14272E+07 3.57120E+05  5952.0      248.00     0.67899    


end timestep


start timestep kper="249" kstp="1" mode="normal"

 #Stressperiod Save Options

 BEGIN READING OUTPUT CONTROL FOR STRESS PERIOD 249
      ALL TIME STEPS WILL BE SAVED
      ALL TIME STEPS WILL BE SAVED

 END READING OUTPUT CONTROL FOR STRESS PERIOD 249


 PROCESSING STORAGE PERIOD DATA
 END PROCESSING STORAGE PERIOD DATA


 STRESS PERIOD 249 IS TRANSIENT


 REUSING DRNS FROM LAST STRESS PERIOD

 REUSING RIVS FROM LAST STRESS PERIOD

 REUSING RIVS FROM LAST STRESS PERIOD

 REUSING RCHS FROM LAST STRESS PERIOD
 UBDSV06 SAVING              DRN IN MODEL GWF_1            PACKAGE GWF_1           CONNECTED TO MODEL GWF_1            PACKAGE DRN_SYS1         ON UNIT   1018 AT TIME STEP      1, STRESS PERIOD    249
 UBDSV06 SAVING              RIV IN MODEL GWF_1            PACKAGE GWF_1           CONNECTED TO MODEL GWF_1            PACKAGE RIV_SYS1         ON UNIT   1018 AT TIME STEP      1, STRESS PERIOD    249
 UBDSV06 SAVING              RIV IN MODEL GWF_1            PACKAGE GWF_1           CONNECTED TO MODEL GWF_1            PACKAGE RIV_SYS2         ON UNIT   1018 AT TIME STEP      1, STRESS PERIOD    249
 UBDSV06 SAVING              RCH IN MODEL GWF_1            PACKAGE GWF_1           CONNECTED TO MODEL GWF_1            PACKAGE RCH_MSW          ON UNIT   1018 AT TIME STEP      1, STRESS PERIOD    249

 HEAD WILL BE SAVED ON UNIT 1017 AT END OF TIME STEP    1, STRESS PERIOD  249


  VOLUME BUDGET FOR ENTIRE MODEL AT END OF TIME STEP    1, STRESS PERIOD 249
  ---------------------------------------------------------------------------------------------------

     CUMULATIVE VOLUME      L**3       RATES FOR THIS TIME STEP      L**3/T          PACKAGE NAME    
     ------------------                 ------------------------                     ----------------

           IN:                                      IN:
           ---                                      ---
              STO-SS =      215899.2211                STO-SS =           6.9298     STORAGE                          
                 DRN =           0.0000                   DRN =           0.0000     DRN_SYS1                         
                 RIV =      205098.5700                   RIV =        1238.5426     RIV_SYS1                         
                 RIV =           0.0000                   RIV =           0.0000     RIV_SYS2                         
                 RCH =      269186.8987                   RCH =         191.2310     RCH_MSW                          

            TOTAL IN =      690184.6897              TOTAL IN =        1436.7034

          OUT:                                     OUT:
          ----                                     ----
              STO-SS =       15786.4424                STO-SS =           9.5538     STORAGE                          
                 DRN =       13453.4101                   DRN =          14.9238     DRN_SYS1                         
                 RIV =      616676.0483                   RIV =        1305.7992     RIV_SYS1                         
                 RIV =       37915.1014                   RIV =          53.6326     RIV_SYS2                         
                 RCH =        6353.9802                   RCH =          52.7940     RCH_MSW                          

           TOTAL OUT =      690184.9822             TOTAL OUT =        1436.7034

            IN - OUT =          -0.2925              IN - OUT =       3.6453E-05

 PERCENT DISCREPANCY =          -0.00     PERCENT DISCREPANCY =           0.00




         TIME SUMMARY AT END OF TIME STEP    1 IN STRESS PERIOD  249
                    SECONDS     MINUTES      HOURS       DAYS        YEARS
                    -----------------------------------------------------------
   TIME STEP LENGTH  86400.      1440.0      24.000      1.0000     2.73785E-03
 STRESS PERIOD TIME  86400.      1440.0      24.000      1.0000     2.73785E-03
         TOTAL TIME 2.15136E+07 3.58560E+05  5976.0      249.00     0.68172    


end timestep


start timestep kper="250" kstp="1" mode="normal"

 #Stressperiod Save Options

 BEGIN READING OUTPUT CONTROL FOR STRESS PERIOD 250
      ALL TIME STEPS WILL BE SAVED
      ALL TIME STEPS WILL BE SAVED

 END READING OUTPUT CONTROL FOR STRESS PERIOD 250


 PROCESSING STORAGE PERIOD DATA
 END PROCESSING STORAGE PERIOD DATA


 STRESS PERIOD 250 IS TRANSIENT


 REUSING DRNS FROM LAST STRESS PERIOD

 REUSING RIVS FROM LAST STRESS PERIOD

 REUSING RIVS FROM LAST STRESS PERIOD

 REUSING RCHS FROM LAST STRESS PERIOD
 UBDSV06 SAVING              DRN IN MODEL GWF_1            PACKAGE GWF_1           CONNECTED TO MODEL GWF_1            PACKAGE DRN_SYS1         ON UNIT   1018 AT TIME STEP      1, STRESS PERIOD    250
 UBDSV06 SAVING              RIV IN MODEL GWF_1            PACKAGE GWF_1           CONNECTED TO MODEL GWF_1            PACKAGE RIV_SYS1         ON UNIT   1018 AT TIME STEP      1, STRESS PERIOD    250
 UBDSV06 SAVING              RIV IN MODEL GWF_1            PACKAGE GWF_1           CONNECTED TO MODEL GWF_1            PACKAGE RIV_SYS2         ON UNIT   1018 AT TIME STEP      1, STRESS PERIOD    250
 UBDSV06 SAVING              RCH IN MODEL GWF_1            PACKAGE GWF_1           CONNECTED TO MODEL GWF_1            PACKAGE RCH_MSW          ON UNIT   1018 AT TIME STEP      1, STRESS PERIOD    250

 HEAD WILL BE SAVED ON UNIT 1017 AT END OF TIME STEP    1, STRESS PERIOD  250


  VOLUME BUDGET FOR ENTIRE MODEL AT END OF TIME STEP    1, STRESS PERIOD 250
  ---------------------------------------------------------------------------------------------------

     CUMULATIVE VOLUME      L**3       RATES FOR THIS TIME STEP      L**3/T          PACKAGE NAME    
     ------------------                 ------------------------                     ----------------

           IN:                                      IN:
           ---                                      ---
              STO-SS =      215912.2441                STO-SS =          13.0230     STORAGE                          
                 DRN =           0.0000                   DRN =           0.0000     DRN_SYS1                         
                 RIV =      206335.2703                   RIV =        1236.7003     RIV_SYS1                         
                 RIV =           0.0000                   RIV =           0.0000     RIV_SYS2                         
                 RCH =      269370.6655                   RCH =         183.7668     RCH_MSW                          

            TOTAL IN =      691618.1799              TOTAL IN =        1433.4901

          OUT:                                     OUT:
          ----                                     ----
              STO-SS =       15797.8943                STO-SS =          11.4520     STORAGE                          
                 DRN =       13468.3130                   DRN =          14.9029     DRN_SYS1                         
                 RIV =      617982.7817                   RIV =        1306.7335     RIV_SYS1                         
                 RIV =       37968.7700                   RIV =          53.6686     RIV_SYS2                         
                 RCH =        6400.7166                   RCH =          46.7364     RCH_MSW                          

           TOTAL OUT =      691618.4756             TOTAL OUT =        1433.4933

            IN - OUT =          -0.2957              IN - OUT =      -3.2148E-03

 PERCENT DISCREPANCY =          -0.00     PERCENT DISCREPANCY =          -0.00




         TIME SUMMARY AT END OF TIME STEP    1 IN STRESS PERIOD  250
                    SECONDS     MINUTES      HOURS       DAYS        YEARS
                    -----------------------------------------------------------
   TIME STEP LENGTH  86400.      1440.0      24.000      1.0000     2.73785E-03
 STRESS PERIOD TIME  86400.      1440.0      24.000      1.0000     2.73785E-03
         TOTAL TIME 2.16000E+07 3.60000E+05  6000.0      250.00     0.68446    


end timestep


start timestep kper="251" kstp="1" mode="normal"

 #Stressperiod Save Options

 BEGIN READING OUTPUT CONTROL FOR STRESS PERIOD 251
      ALL TIME STEPS WILL BE SAVED
      ALL TIME STEPS WILL BE SAVED

 END READING OUTPUT CONTROL FOR STRESS PERIOD 251


 PROCESSING STORAGE PERIOD DATA
 END PROCESSING STORAGE PERIOD DATA


 STRESS PERIOD 251 IS TRANSIENT


 REUSING DRNS FROM LAST STRESS PERIOD

 REUSING RIVS FROM LAST STRESS PERIOD

 REUSING RIVS FROM LAST STRESS PERIOD

 REUSING RCHS FROM LAST STRESS PERIOD
 UBDSV06 SAVING              DRN IN MODEL GWF_1            PACKAGE GWF_1           CONNECTED TO MODEL GWF_1            PACKAGE DRN_SYS1         ON UNIT   1018 AT TIME STEP      1, STRESS PERIOD    251
 UBDSV06 SAVING              RIV IN MODEL GWF_1            PACKAGE GWF_1           CONNECTED TO MODEL GWF_1            PACKAGE RIV_SYS1         ON UNIT   1018 AT TIME STEP      1, STRESS PERIOD    251
 UBDSV06 SAVING              RIV IN MODEL GWF_1            PACKAGE GWF_1           CONNECTED TO MODEL GWF_1            PACKAGE RIV_SYS2         ON UNIT   1018 AT TIME STEP      1, STRESS PERIOD    251
 UBDSV06 SAVING              RCH IN MODEL GWF_1            PACKAGE GWF_1           CONNECTED TO MODEL GWF_1            PACKAGE RCH_MSW          ON UNIT   1018 AT TIME STEP      1, STRESS PERIOD    251

 HEAD WILL BE SAVED ON UNIT 1017 AT END OF TIME STEP    1, STRESS PERIOD  251


  VOLUME BUDGET FOR ENTIRE MODEL AT END OF TIME STEP    1, STRESS PERIOD 251
  ---------------------------------------------------------------------------------------------------

     CUMULATIVE VOLUME      L**3       RATES FOR THIS TIME STEP      L**3/T          PACKAGE NAME    
     ------------------                 ------------------------                     ----------------

           IN:                                      IN:
           ---                                      ---
              STO-SS =      215930.1916                STO-SS =          17.9475     STORAGE                          
                 DRN =           0.0000                   DRN =           0.0000     DRN_SYS1                         
                 RIV =      207569.3018                   RIV =        1234.0315     RIV_SYS1                         
                 RIV =           0.0000                   RIV =           0.0000     RIV_SYS2                         
                 RCH =      269548.0707                   RCH =         177.4052     RCH_MSW                          

            TOTAL IN =      693047.5641              TOTAL IN =        1429.3842

          OUT:                                     OUT:
          ----                                     ----
              STO-SS =       15811.4812                STO-SS =          13.5869     STORAGE                          
                 DRN =       13483.1958                   DRN =          14.8828     DRN_SYS1                         
                 RIV =      619291.1040                   RIV =        1308.3222     RIV_SYS1                         
                 RIV =       38022.3571                   RIV =          53.5871     RIV_SYS2                         
                 RCH =        6439.7228                   RCH =          39.0062     RCH_MSW                          

           TOTAL OUT =      693047.8608             TOTAL OUT =        1429.3852

            IN - OUT =          -0.2967              IN - OUT =      -9.8349E-04

 PERCENT DISCREPANCY =          -0.00     PERCENT DISCREPANCY =          -0.00




         TIME SUMMARY AT END OF TIME STEP    1 IN STRESS PERIOD  251
                    SECONDS     MINUTES      HOURS       DAYS        YEARS
                    -----------------------------------------------------------
   TIME STEP LENGTH  86400.      1440.0      24.000      1.0000     2.73785E-03
 STRESS PERIOD TIME  86400.      1440.0      24.000      1.0000     2.73785E-03
         TOTAL TIME 2.16864E+07 3.61440E+05  6024.0      251.00     0.68720    


end timestep


start timestep kper="252" kstp="1" mode="normal"

 #Stressperiod Save Options

 BEGIN READING OUTPUT CONTROL FOR STRESS PERIOD 252
      ALL TIME STEPS WILL BE SAVED
      ALL TIME STEPS WILL BE SAVED

 END READING OUTPUT CONTROL FOR STRESS PERIOD 252


 PROCESSING STORAGE PERIOD DATA
 END PROCESSING STORAGE PERIOD DATA


 STRESS PERIOD 252 IS TRANSIENT


 REUSING DRNS FROM LAST STRESS PERIOD

 REUSING RIVS FROM LAST STRESS PERIOD

 REUSING RIVS FROM LAST STRESS PERIOD

 REUSING RCHS FROM LAST STRESS PERIOD
 UBDSV06 SAVING              DRN IN MODEL GWF_1            PACKAGE GWF_1           CONNECTED TO MODEL GWF_1            PACKAGE DRN_SYS1         ON UNIT   1018 AT TIME STEP      1, STRESS PERIOD    252
 UBDSV06 SAVING              RIV IN MODEL GWF_1            PACKAGE GWF_1           CONNECTED TO MODEL GWF_1            PACKAGE RIV_SYS1         ON UNIT   1018 AT TIME STEP      1, STRESS PERIOD    252
 UBDSV06 SAVING              RIV IN MODEL GWF_1            PACKAGE GWF_1           CONNECTED TO MODEL GWF_1            PACKAGE RIV_SYS2         ON UNIT   1018 AT TIME STEP      1, STRESS PERIOD    252
 UBDSV06 SAVING              RCH IN MODEL GWF_1            PACKAGE GWF_1           CONNECTED TO MODEL GWF_1            PACKAGE RCH_MSW          ON UNIT   1018 AT TIME STEP      1, STRESS PERIOD    252

 HEAD WILL BE SAVED ON UNIT 1017 AT END OF TIME STEP    1, STRESS PERIOD  252


  VOLUME BUDGET FOR ENTIRE MODEL AT END OF TIME STEP    1, STRESS PERIOD 252
  ---------------------------------------------------------------------------------------------------

     CUMULATIVE VOLUME      L**3       RATES FOR THIS TIME STEP      L**3/T          PACKAGE NAME    
     ------------------                 ------------------------                     ----------------

           IN:                                      IN:
           ---                                      ---
              STO-SS =      215953.8170                STO-SS =          23.6255     STORAGE                          
                 DRN =           0.0000                   DRN =           0.0000     DRN_SYS1                         
                 RIV =      208800.6971                   RIV =        1231.3953     RIV_SYS1                         
                 RIV =           0.0000                   RIV =           0.0000     RIV_SYS2                         
                 RCH =      269717.9355                   RCH =         169.8648     RCH_MSW                          

            TOTAL IN =      694472.4496              TOTAL IN =        1424.8855

          OUT:                                     OUT:
          ----                                     ----
              STO-SS =       15825.8237                STO-SS =          14.3425     STORAGE                          
                 DRN =       13498.0882                   DRN =          14.8925     DRN_SYS1                         
                 RIV =      620601.3663                   RIV =        1310.2623     RIV_SYS1                         
                 RIV =       38075.8590                   RIV =          53.5018     RIV_SYS2                         
                 RCH =        6471.6124                   RCH =          31.8896     RCH_MSW                          

           TOTAL OUT =      694472.7495             TOTAL OUT =        1424.8887

            IN - OUT =          -0.2999              IN - OUT =      -3.1555E-03

 PERCENT DISCREPANCY =          -0.00     PERCENT DISCREPANCY =          -0.00




         TIME SUMMARY AT END OF TIME STEP    1 IN STRESS PERIOD  252
                    SECONDS     MINUTES      HOURS       DAYS        YEARS
                    -----------------------------------------------------------
   TIME STEP LENGTH  86400.      1440.0      24.000      1.0000     2.73785E-03
 STRESS PERIOD TIME  86400.      1440.0      24.000      1.0000     2.73785E-03
         TOTAL TIME 2.17728E+07 3.62880E+05  6048.0      252.00     0.68994    


end timestep


start timestep kper="253" kstp="1" mode="normal"

 #Stressperiod Save Options

 BEGIN READING OUTPUT CONTROL FOR STRESS PERIOD 253
      ALL TIME STEPS WILL BE SAVED
      ALL TIME STEPS WILL BE SAVED

 END READING OUTPUT CONTROL FOR STRESS PERIOD 253


 PROCESSING STORAGE PERIOD DATA
 END PROCESSING STORAGE PERIOD DATA


 STRESS PERIOD 253 IS TRANSIENT


 REUSING DRNS FROM LAST STRESS PERIOD

 REUSING RIVS FROM LAST STRESS PERIOD

 REUSING RIVS FROM LAST STRESS PERIOD

 REUSING RCHS FROM LAST STRESS PERIOD
 UBDSV06 SAVING              DRN IN MODEL GWF_1            PACKAGE GWF_1           CONNECTED TO MODEL GWF_1            PACKAGE DRN_SYS1         ON UNIT   1018 AT TIME STEP      1, STRESS PERIOD    253
 UBDSV06 SAVING              RIV IN MODEL GWF_1            PACKAGE GWF_1           CONNECTED TO MODEL GWF_1            PACKAGE RIV_SYS1         ON UNIT   1018 AT TIME STEP      1, STRESS PERIOD    253
 UBDSV06 SAVING              RIV IN MODEL GWF_1            PACKAGE GWF_1           CONNECTED TO MODEL GWF_1            PACKAGE RIV_SYS2         ON UNIT   1018 AT TIME STEP      1, STRESS PERIOD    253
 UBDSV06 SAVING              RCH IN MODEL GWF_1            PACKAGE GWF_1           CONNECTED TO MODEL GWF_1            PACKAGE RCH_MSW          ON UNIT   1018 AT TIME STEP      1, STRESS PERIOD    253

 HEAD WILL BE SAVED ON UNIT 1017 AT END OF TIME STEP    1, STRESS PERIOD  253


  VOLUME BUDGET FOR ENTIRE MODEL AT END OF TIME STEP    1, STRESS PERIOD 253
  ---------------------------------------------------------------------------------------------------

     CUMULATIVE VOLUME      L**3       RATES FOR THIS TIME STEP      L**3/T          PACKAGE NAME    
     ------------------                 ------------------------                     ----------------

           IN:                                      IN:
           ---                                      ---
              STO-SS =      215964.2631                STO-SS =          10.4461     STORAGE                          
                 DRN =           0.0000                   DRN =           0.0000     DRN_SYS1                         
                 RIV =      210026.2946                   RIV =        1225.5976     RIV_SYS1                         
                 RIV =           0.0000                   RIV =           0.0000     RIV_SYS2                         
                 RCH =      269919.7248                   RCH =         201.7892     RCH_MSW                          

            TOTAL IN =      695910.2825              TOTAL IN =        1437.8329

          OUT:                                     OUT:
          ----                                     ----
              STO-SS =       15864.0249                STO-SS =          38.2013     STORAGE                          
                 DRN =       13512.9845                   DRN =          14.8962     DRN_SYS1                         
                 RIV =      621916.5775                   RIV =        1315.2112     RIV_SYS1                         
                 RIV =       38129.4526                   RIV =          53.5937     RIV_SYS2                         
                 RCH =        6487.5286                   RCH =          15.9162     RCH_MSW                          

           TOTAL OUT =      695910.5681             TOTAL OUT =        1437.8186

            IN - OUT =          -0.2856              IN - OUT =       1.4316E-02

 PERCENT DISCREPANCY =          -0.00     PERCENT DISCREPANCY =           0.00




         TIME SUMMARY AT END OF TIME STEP    1 IN STRESS PERIOD  253
                    SECONDS     MINUTES      HOURS       DAYS        YEARS
                    -----------------------------------------------------------
   TIME STEP LENGTH  86400.      1440.0      24.000      1.0000     2.73785E-03
 STRESS PERIOD TIME  86400.      1440.0      24.000      1.0000     2.73785E-03
         TOTAL TIME 2.18592E+07 3.64320E+05  6072.0      253.00     0.69268    


end timestep


start timestep kper="254" kstp="1" mode="normal"

 #Stressperiod Save Options

 BEGIN READING OUTPUT CONTROL FOR STRESS PERIOD 254
      ALL TIME STEPS WILL BE SAVED
      ALL TIME STEPS WILL BE SAVED

 END READING OUTPUT CONTROL FOR STRESS PERIOD 254


 PROCESSING STORAGE PERIOD DATA
 END PROCESSING STORAGE PERIOD DATA


 STRESS PERIOD 254 IS TRANSIENT


 REUSING DRNS FROM LAST STRESS PERIOD

 REUSING RIVS FROM LAST STRESS PERIOD

 REUSING RIVS FROM LAST STRESS PERIOD

 REUSING RCHS FROM LAST STRESS PERIOD
 UBDSV06 SAVING              DRN IN MODEL GWF_1            PACKAGE GWF_1           CONNECTED TO MODEL GWF_1            PACKAGE DRN_SYS1         ON UNIT   1018 AT TIME STEP      1, STRESS PERIOD    254
 UBDSV06 SAVING              RIV IN MODEL GWF_1            PACKAGE GWF_1           CONNECTED TO MODEL GWF_1            PACKAGE RIV_SYS1         ON UNIT   1018 AT TIME STEP      1, STRESS PERIOD    254
 UBDSV06 SAVING              RIV IN MODEL GWF_1            PACKAGE GWF_1           CONNECTED TO MODEL GWF_1            PACKAGE RIV_SYS2         ON UNIT   1018 AT TIME STEP      1, STRESS PERIOD    254
 UBDSV06 SAVING              RCH IN MODEL GWF_1            PACKAGE GWF_1           CONNECTED TO MODEL GWF_1            PACKAGE RCH_MSW          ON UNIT   1018 AT TIME STEP      1, STRESS PERIOD    254

 HEAD WILL BE SAVED ON UNIT 1017 AT END OF TIME STEP    1, STRESS PERIOD  254


  VOLUME BUDGET FOR ENTIRE MODEL AT END OF TIME STEP    1, STRESS PERIOD 254
  ---------------------------------------------------------------------------------------------------

     CUMULATIVE VOLUME      L**3       RATES FOR THIS TIME STEP      L**3/T          PACKAGE NAME    
     ------------------                 ------------------------                     ----------------

           IN:                                      IN:
           ---                                      ---
              STO-SS =      215966.0414                STO-SS =           1.7783     STORAGE                          
                 DRN =           0.0000                   DRN =           0.0000     DRN_SYS1                         
                 RIV =      211239.5253                   RIV =        1213.2307     RIV_SYS1                         
                 RIV =           0.0000                   RIV =           0.0000     RIV_SYS2                         
                 RCH =      270188.8503                   RCH =         269.1256     RCH_MSW                          

            TOTAL IN =      697394.4171              TOTAL IN =        1484.1346

          OUT:                                     OUT:
          ----                                     ----
              STO-SS =       15953.5622                STO-SS =          89.5373     STORAGE                          
                 DRN =       13527.9391                   DRN =          14.9546     DRN_SYS1                         
                 RIV =      623241.5587                   RIV =        1324.9812     RIV_SYS1                         
                 RIV =       38183.1828                   RIV =          53.7301     RIV_SYS2                         
                 RCH =        6488.4405                   RCH =           0.9119     RCH_MSW                          

           TOTAL OUT =      697394.6831             TOTAL OUT =        1484.1151

            IN - OUT =          -0.2660              IN - OUT =       1.9513E-02

 PERCENT DISCREPANCY =          -0.00     PERCENT DISCREPANCY =           0.00




         TIME SUMMARY AT END OF TIME STEP    1 IN STRESS PERIOD  254
                    SECONDS     MINUTES      HOURS       DAYS        YEARS
                    -----------------------------------------------------------
   TIME STEP LENGTH  86400.      1440.0      24.000      1.0000     2.73785E-03
 STRESS PERIOD TIME  86400.      1440.0      24.000      1.0000     2.73785E-03
         TOTAL TIME 2.19456E+07 3.65760E+05  6096.0      254.00     0.69541    


end timestep


start timestep kper="255" kstp="1" mode="normal"

 #Stressperiod Save Options

 BEGIN READING OUTPUT CONTROL FOR STRESS PERIOD 255
      ALL TIME STEPS WILL BE SAVED
      ALL TIME STEPS WILL BE SAVED

 END READING OUTPUT CONTROL FOR STRESS PERIOD 255


 PROCESSING STORAGE PERIOD DATA
 END PROCESSING STORAGE PERIOD DATA


 STRESS PERIOD 255 IS TRANSIENT


 REUSING DRNS FROM LAST STRESS PERIOD

 REUSING RIVS FROM LAST STRESS PERIOD

 REUSING RIVS FROM LAST STRESS PERIOD

 REUSING RCHS FROM LAST STRESS PERIOD
 UBDSV06 SAVING              DRN IN MODEL GWF_1            PACKAGE GWF_1           CONNECTED TO MODEL GWF_1            PACKAGE DRN_SYS1         ON UNIT   1018 AT TIME STEP      1, STRESS PERIOD    255
 UBDSV06 SAVING              RIV IN MODEL GWF_1            PACKAGE GWF_1           CONNECTED TO MODEL GWF_1            PACKAGE RIV_SYS1         ON UNIT   1018 AT TIME STEP      1, STRESS PERIOD    255
 UBDSV06 SAVING              RIV IN MODEL GWF_1            PACKAGE GWF_1           CONNECTED TO MODEL GWF_1            PACKAGE RIV_SYS2         ON UNIT   1018 AT TIME STEP      1, STRESS PERIOD    255
 UBDSV06 SAVING              RCH IN MODEL GWF_1            PACKAGE GWF_1           CONNECTED TO MODEL GWF_1            PACKAGE RCH_MSW          ON UNIT   1018 AT TIME STEP      1, STRESS PERIOD    255

 HEAD WILL BE SAVED ON UNIT 1017 AT END OF TIME STEP    1, STRESS PERIOD  255


  VOLUME BUDGET FOR ENTIRE MODEL AT END OF TIME STEP    1, STRESS PERIOD 255
  ---------------------------------------------------------------------------------------------------

     CUMULATIVE VOLUME      L**3       RATES FOR THIS TIME STEP      L**3/T          PACKAGE NAME    
     ------------------                 ------------------------                     ----------------

           IN:                                      IN:
           ---                                      ---
              STO-SS =      215966.3909                STO-SS =           0.3495     STORAGE                          
                 DRN =           0.0000                   DRN =           0.0000     DRN_SYS1                         
                 RIV =      212428.4132                   RIV =        1188.8879     RIV_SYS1                         
                 RIV =           0.0000                   RIV =           0.0000     RIV_SYS2                         
                 RCH =      270569.0932                   RCH =         380.2428     RCH_MSW                          

            TOTAL IN =      698963.8973              TOTAL IN =        1569.4802

          OUT:                                     OUT:
          ----                                     ----
              STO-SS =       16107.8039                STO-SS =         154.2418     STORAGE                          
                 DRN =       13542.9376                   DRN =          14.9986     DRN_SYS1                         
                 RIV =      624587.8491                   RIV =        1346.2905     RIV_SYS1                         
                 RIV =       38237.1368                   RIV =          53.9540     RIV_SYS2                         
                 RCH =        6488.4405                   RCH =           0.0000     RCH_MSW                          

           TOTAL OUT =      698964.1679             TOTAL OUT =        1569.4848

            IN - OUT =          -0.2707              IN - OUT =      -4.6319E-03

 PERCENT DISCREPANCY =          -0.00     PERCENT DISCREPANCY =          -0.00




         TIME SUMMARY AT END OF TIME STEP    1 IN STRESS PERIOD  255
                    SECONDS     MINUTES      HOURS       DAYS        YEARS
                    -----------------------------------------------------------
   TIME STEP LENGTH  86400.      1440.0      24.000      1.0000     2.73785E-03
 STRESS PERIOD TIME  86400.      1440.0      24.000      1.0000     2.73785E-03
         TOTAL TIME 2.20320E+07 3.67200E+05  6120.0      255.00     0.69815    


end timestep


start timestep kper="256" kstp="1" mode="normal"

 #Stressperiod Save Options

 BEGIN READING OUTPUT CONTROL FOR STRESS PERIOD 256
      ALL TIME STEPS WILL BE SAVED
      ALL TIME STEPS WILL BE SAVED

 END READING OUTPUT CONTROL FOR STRESS PERIOD 256


 PROCESSING STORAGE PERIOD DATA
 END PROCESSING STORAGE PERIOD DATA


 STRESS PERIOD 256 IS TRANSIENT


 REUSING DRNS FROM LAST STRESS PERIOD

 REUSING RIVS FROM LAST STRESS PERIOD

 REUSING RIVS FROM LAST STRESS PERIOD

 REUSING RCHS FROM LAST STRESS PERIOD
 UBDSV06 SAVING              DRN IN MODEL GWF_1            PACKAGE GWF_1           CONNECTED TO MODEL GWF_1            PACKAGE DRN_SYS1         ON UNIT   1018 AT TIME STEP      1, STRESS PERIOD    256
 UBDSV06 SAVING              RIV IN MODEL GWF_1            PACKAGE GWF_1           CONNECTED TO MODEL GWF_1            PACKAGE RIV_SYS1         ON UNIT   1018 AT TIME STEP      1, STRESS PERIOD    256
 UBDSV06 SAVING              RIV IN MODEL GWF_1            PACKAGE GWF_1           CONNECTED TO MODEL GWF_1            PACKAGE RIV_SYS2         ON UNIT   1018 AT TIME STEP      1, STRESS PERIOD    256
 UBDSV06 SAVING              RCH IN MODEL GWF_1            PACKAGE GWF_1           CONNECTED TO MODEL GWF_1            PACKAGE RCH_MSW          ON UNIT   1018 AT TIME STEP      1, STRESS PERIOD    256

 HEAD WILL BE SAVED ON UNIT 1017 AT END OF TIME STEP    1, STRESS PERIOD  256


  VOLUME BUDGET FOR ENTIRE MODEL AT END OF TIME STEP    1, STRESS PERIOD 256
  ---------------------------------------------------------------------------------------------------

     CUMULATIVE VOLUME      L**3       RATES FOR THIS TIME STEP      L**3/T          PACKAGE NAME    
     ------------------                 ------------------------                     ----------------

           IN:                                      IN:
           ---                                      ---
              STO-SS =      216040.9047                STO-SS =          74.5138     STORAGE                          
                 DRN =           0.0000                   DRN =           0.0000     DRN_SYS1                         
                 RIV =      213600.5979                   RIV =        1172.1847     RIV_SYS1                         
                 RIV =           0.0000                   RIV =           0.0000     RIV_SYS2                         
                 RCH =      270835.4008                   RCH =         266.3076     RCH_MSW                          

            TOTAL IN =      700476.9034              TOTAL IN =        1513.0061

          OUT:                                     OUT:
          ----                                     ----
              STO-SS =       16191.1337                STO-SS =          83.3297     STORAGE                          
                 DRN =       13557.8436                   DRN =          14.9060     DRN_SYS1                         
                 RIV =      625948.9530                   RIV =        1361.1039     RIV_SYS1                         
                 RIV =       38290.8010                   RIV =          53.6643     RIV_SYS2                         
                 RCH =        6488.4405                   RCH =           0.0000     RCH_MSW                          

           TOTAL OUT =      700477.1718             TOTAL OUT =        1513.0039

            IN - OUT =          -0.2685              IN - OUT =       2.2267E-03

 PERCENT DISCREPANCY =          -0.00     PERCENT DISCREPANCY =           0.00




         TIME SUMMARY AT END OF TIME STEP    1 IN STRESS PERIOD  256
                    SECONDS     MINUTES      HOURS       DAYS        YEARS
                    -----------------------------------------------------------
   TIME STEP LENGTH  86400.      1440.0      24.000      1.0000     2.73785E-03
 STRESS PERIOD TIME  86400.      1440.0      24.000      1.0000     2.73785E-03
         TOTAL TIME 2.21184E+07 3.68640E+05  6144.0      256.00     0.70089    


end timestep


start timestep kper="257" kstp="1" mode="normal"

 #Stressperiod Save Options

 BEGIN READING OUTPUT CONTROL FOR STRESS PERIOD 257
      ALL TIME STEPS WILL BE SAVED
      ALL TIME STEPS WILL BE SAVED

 END READING OUTPUT CONTROL FOR STRESS PERIOD 257


 PROCESSING STORAGE PERIOD DATA
 END PROCESSING STORAGE PERIOD DATA


 STRESS PERIOD 257 IS TRANSIENT


 REUSING DRNS FROM LAST STRESS PERIOD

 REUSING RIVS FROM LAST STRESS PERIOD

 REUSING RIVS FROM LAST STRESS PERIOD

 REUSING RCHS FROM LAST STRESS PERIOD
 UBDSV06 SAVING              DRN IN MODEL GWF_1            PACKAGE GWF_1           CONNECTED TO MODEL GWF_1            PACKAGE DRN_SYS1         ON UNIT   1018 AT TIME STEP      1, STRESS PERIOD    257
 UBDSV06 SAVING              RIV IN MODEL GWF_1            PACKAGE GWF_1           CONNECTED TO MODEL GWF_1            PACKAGE RIV_SYS1         ON UNIT   1018 AT TIME STEP      1, STRESS PERIOD    257
 UBDSV06 SAVING              RIV IN MODEL GWF_1            PACKAGE GWF_1           CONNECTED TO MODEL GWF_1            PACKAGE RIV_SYS2         ON UNIT   1018 AT TIME STEP      1, STRESS PERIOD    257
 UBDSV06 SAVING              RCH IN MODEL GWF_1            PACKAGE GWF_1           CONNECTED TO MODEL GWF_1            PACKAGE RCH_MSW          ON UNIT   1018 AT TIME STEP      1, STRESS PERIOD    257

 HEAD WILL BE SAVED ON UNIT 1017 AT END OF TIME STEP    1, STRESS PERIOD  257


  VOLUME BUDGET FOR ENTIRE MODEL AT END OF TIME STEP    1, STRESS PERIOD 257
  ---------------------------------------------------------------------------------------------------

     CUMULATIVE VOLUME      L**3       RATES FOR THIS TIME STEP      L**3/T          PACKAGE NAME    
     ------------------                 ------------------------                     ----------------

           IN:                                      IN:
           ---                                      ---
              STO-SS =      216042.3457                STO-SS =           1.4410     STORAGE                          
                 DRN =           0.0000                   DRN =           0.0000     DRN_SYS1                         
                 RIV =      214699.4369                   RIV =        1098.8389     RIV_SYS1                         
                 RIV =           0.0000                   RIV =           0.0000     RIV_SYS2                         
                 RCH =      271608.5999                   RCH =         773.1991     RCH_MSW                          

            TOTAL IN =      702350.3824              TOTAL IN =        1873.4790

          OUT:                                     OUT:
          ----                                     ----
              STO-SS =       16565.0119                STO-SS =         373.8782     STORAGE                          
                 DRN =       13572.9791                   DRN =          15.1355     DRN_SYS1                         
                 RIV =      627379.0191                   RIV =        1430.0661     RIV_SYS1                         
                 RIV =       38345.1954                   RIV =          54.3944     RIV_SYS2                         
                 RCH =        6488.4405                   RCH =           0.0000     RCH_MSW                          

           TOTAL OUT =      702350.6460             TOTAL OUT =        1873.4742

            IN - OUT =          -0.2636              IN - OUT =       4.8729E-03

 PERCENT DISCREPANCY =          -0.00     PERCENT DISCREPANCY =           0.00




         TIME SUMMARY AT END OF TIME STEP    1 IN STRESS PERIOD  257
                    SECONDS     MINUTES      HOURS       DAYS        YEARS
                    -----------------------------------------------------------
   TIME STEP LENGTH  86400.      1440.0      24.000      1.0000     2.73785E-03
 STRESS PERIOD TIME  86400.      1440.0      24.000      1.0000     2.73785E-03
         TOTAL TIME 2.22048E+07 3.70080E+05  6168.0      257.00     0.70363    


end timestep


start timestep kper="258" kstp="1" mode="normal"

 #Stressperiod Save Options

 BEGIN READING OUTPUT CONTROL FOR STRESS PERIOD 258
      ALL TIME STEPS WILL BE SAVED
      ALL TIME STEPS WILL BE SAVED

 END READING OUTPUT CONTROL FOR STRESS PERIOD 258


 PROCESSING STORAGE PERIOD DATA
 END PROCESSING STORAGE PERIOD DATA


 STRESS PERIOD 258 IS TRANSIENT


 REUSING DRNS FROM LAST STRESS PERIOD

 REUSING RIVS FROM LAST STRESS PERIOD

 REUSING RIVS FROM LAST STRESS PERIOD

 REUSING RCHS FROM LAST STRESS PERIOD
 UBDSV06 SAVING              DRN IN MODEL GWF_1            PACKAGE GWF_1           CONNECTED TO MODEL GWF_1            PACKAGE DRN_SYS1         ON UNIT   1018 AT TIME STEP      1, STRESS PERIOD    258
 UBDSV06 SAVING              RIV IN MODEL GWF_1            PACKAGE GWF_1           CONNECTED TO MODEL GWF_1            PACKAGE RIV_SYS1         ON UNIT   1018 AT TIME STEP      1, STRESS PERIOD    258
 UBDSV06 SAVING              RIV IN MODEL GWF_1            PACKAGE GWF_1           CONNECTED TO MODEL GWF_1            PACKAGE RIV_SYS2         ON UNIT   1018 AT TIME STEP      1, STRESS PERIOD    258
 UBDSV06 SAVING              RCH IN MODEL GWF_1            PACKAGE GWF_1           CONNECTED TO MODEL GWF_1            PACKAGE RCH_MSW          ON UNIT   1018 AT TIME STEP      1, STRESS PERIOD    258

 HEAD WILL BE SAVED ON UNIT 1017 AT END OF TIME STEP    1, STRESS PERIOD  258


  VOLUME BUDGET FOR ENTIRE MODEL AT END OF TIME STEP    1, STRESS PERIOD 258
  ---------------------------------------------------------------------------------------------------

     CUMULATIVE VOLUME      L**3       RATES FOR THIS TIME STEP      L**3/T          PACKAGE NAME    
     ------------------                 ------------------------                     ----------------

           IN:                                      IN:
           ---                                      ---
              STO-SS =      216042.3457                STO-SS =           0.0000     STORAGE                          
                 DRN =           0.0000                   DRN =           0.0000     DRN_SYS1                         
                 RIV =      215692.4276                   RIV =         992.9907     RIV_SYS1                         
                 RIV =           0.0000                   RIV =           0.0000     RIV_SYS2                         
                 RCH =      273174.1374                   RCH =        1565.5375     RCH_MSW                          

            TOTAL IN =      704908.9107              TOTAL IN =        2558.5283

          OUT:                                     OUT:
          ----                                     ----
              STO-SS =       17413.1132                STO-SS =         848.1013     STORAGE                          
                 DRN =       13588.7556                   DRN =          15.7765     DRN_SYS1                         
                 RIV =      629017.3030                   RIV =        1638.2838     RIV_SYS1                         
                 RIV =       38401.5488                   RIV =          56.3533     RIV_SYS2                         
                 RCH =        6488.4405                   RCH =           0.0000     RCH_MSW                          

           TOTAL OUT =      704909.1609             TOTAL OUT =        2558.5149

            IN - OUT =          -0.2502              IN - OUT =       1.3349E-02

 PERCENT DISCREPANCY =          -0.00     PERCENT DISCREPANCY =           0.00




         TIME SUMMARY AT END OF TIME STEP    1 IN STRESS PERIOD  258
                    SECONDS     MINUTES      HOURS       DAYS        YEARS
                    -----------------------------------------------------------
   TIME STEP LENGTH  86400.      1440.0      24.000      1.0000     2.73785E-03
 STRESS PERIOD TIME  86400.      1440.0      24.000      1.0000     2.73785E-03
         TOTAL TIME 2.22912E+07 3.71520E+05  6192.0      258.00     0.70637    


end timestep


start timestep kper="259" kstp="1" mode="normal"

 #Stressperiod Save Options

 BEGIN READING OUTPUT CONTROL FOR STRESS PERIOD 259
      ALL TIME STEPS WILL BE SAVED
      ALL TIME STEPS WILL BE SAVED

 END READING OUTPUT CONTROL FOR STRESS PERIOD 259


 PROCESSING STORAGE PERIOD DATA
 END PROCESSING STORAGE PERIOD DATA


 STRESS PERIOD 259 IS TRANSIENT


 REUSING DRNS FROM LAST STRESS PERIOD

 REUSING RIVS FROM LAST STRESS PERIOD

 REUSING RIVS FROM LAST STRESS PERIOD

 REUSING RCHS FROM LAST STRESS PERIOD
 UBDSV06 SAVING              DRN IN MODEL GWF_1            PACKAGE GWF_1           CONNECTED TO MODEL GWF_1            PACKAGE DRN_SYS1         ON UNIT   1018 AT TIME STEP      1, STRESS PERIOD    259
 UBDSV06 SAVING              RIV IN MODEL GWF_1            PACKAGE GWF_1           CONNECTED TO MODEL GWF_1            PACKAGE RIV_SYS1         ON UNIT   1018 AT TIME STEP      1, STRESS PERIOD    259
 UBDSV06 SAVING              RIV IN MODEL GWF_1            PACKAGE GWF_1           CONNECTED TO MODEL GWF_1            PACKAGE RIV_SYS2         ON UNIT   1018 AT TIME STEP      1, STRESS PERIOD    259
 UBDSV06 SAVING              RCH IN MODEL GWF_1            PACKAGE GWF_1           CONNECTED TO MODEL GWF_1            PACKAGE RCH_MSW          ON UNIT   1018 AT TIME STEP      1, STRESS PERIOD    259

 HEAD WILL BE SAVED ON UNIT 1017 AT END OF TIME STEP    1, STRESS PERIOD  259


  VOLUME BUDGET FOR ENTIRE MODEL AT END OF TIME STEP    1, STRESS PERIOD 259
  ---------------------------------------------------------------------------------------------------

     CUMULATIVE VOLUME      L**3       RATES FOR THIS TIME STEP      L**3/T          PACKAGE NAME    
     ------------------                 ------------------------                     ----------------

           IN:                                      IN:
           ---                                      ---
              STO-SS =      216042.3457                STO-SS =           0.0000     STORAGE                          
                 DRN =           0.0000                   DRN =           0.0000     DRN_SYS1                         
                 RIV =      216565.3179                   RIV =         872.8903     RIV_SYS1                         
                 RIV =           0.0000                   RIV =           0.0000     RIV_SYS2                         
                 RCH =      275562.5811                   RCH =        2388.4437     RCH_MSW                          

            TOTAL IN =      708170.2448              TOTAL IN =        3261.3340

          OUT:                                     OUT:
          ----                                     ----
              STO-SS =       18689.7288                STO-SS =        1276.6157     STORAGE                          
                 DRN =       13605.7712                   DRN =          17.0156     DRN_SYS1                         
                 RIV =      630924.9023                   RIV =        1907.5993     RIV_SYS1                         
                 RIV =       38461.6486                   RIV =          60.0999     RIV_SYS2                         
                 RCH =        6488.4405                   RCH =           0.0000     RCH_MSW                          

           TOTAL OUT =      708170.4914             TOTAL OUT =        3261.3305

            IN - OUT =          -0.2466              IN - OUT =       3.5875E-03

 PERCENT DISCREPANCY =          -0.00     PERCENT DISCREPANCY =           0.00




         TIME SUMMARY AT END OF TIME STEP    1 IN STRESS PERIOD  259
                    SECONDS     MINUTES      HOURS       DAYS        YEARS
                    -----------------------------------------------------------
   TIME STEP LENGTH  86400.      1440.0      24.000      1.0000     2.73785E-03
 STRESS PERIOD TIME  86400.      1440.0      24.000      1.0000     2.73785E-03
         TOTAL TIME 2.23776E+07 3.72960E+05  6216.0      259.00     0.70910    


end timestep


start timestep kper="260" kstp="1" mode="normal"

 #Stressperiod Save Options

 BEGIN READING OUTPUT CONTROL FOR STRESS PERIOD 260
      ALL TIME STEPS WILL BE SAVED
      ALL TIME STEPS WILL BE SAVED

 END READING OUTPUT CONTROL FOR STRESS PERIOD 260


 PROCESSING STORAGE PERIOD DATA
 END PROCESSING STORAGE PERIOD DATA


 STRESS PERIOD 260 IS TRANSIENT


 REUSING DRNS FROM LAST STRESS PERIOD

 REUSING RIVS FROM LAST STRESS PERIOD

 REUSING RIVS FROM LAST STRESS PERIOD

 REUSING RCHS FROM LAST STRESS PERIOD
 UBDSV06 SAVING              DRN IN MODEL GWF_1            PACKAGE GWF_1           CONNECTED TO MODEL GWF_1            PACKAGE DRN_SYS1         ON UNIT   1018 AT TIME STEP      1, STRESS PERIOD    260
 UBDSV06 SAVING              RIV IN MODEL GWF_1            PACKAGE GWF_1           CONNECTED TO MODEL GWF_1            PACKAGE RIV_SYS1         ON UNIT   1018 AT TIME STEP      1, STRESS PERIOD    260
 UBDSV06 SAVING              RIV IN MODEL GWF_1            PACKAGE GWF_1           CONNECTED TO MODEL GWF_1            PACKAGE RIV_SYS2         ON UNIT   1018 AT TIME STEP      1, STRESS PERIOD    260
 UBDSV06 SAVING              RCH IN MODEL GWF_1            PACKAGE GWF_1           CONNECTED TO MODEL GWF_1            PACKAGE RCH_MSW          ON UNIT   1018 AT TIME STEP      1, STRESS PERIOD    260

 HEAD WILL BE SAVED ON UNIT 1017 AT END OF TIME STEP    1, STRESS PERIOD  260


  VOLUME BUDGET FOR ENTIRE MODEL AT END OF TIME STEP    1, STRESS PERIOD 260
  ---------------------------------------------------------------------------------------------------

     CUMULATIVE VOLUME      L**3       RATES FOR THIS TIME STEP      L**3/T          PACKAGE NAME    
     ------------------                 ------------------------                     ----------------

           IN:                                      IN:
           ---                                      ---
              STO-SS =      216042.3457                STO-SS =           0.0000     STORAGE                          
                 DRN =           0.0000                   DRN =           0.0000     DRN_SYS1                         
                 RIV =      217312.5885                   RIV =         747.2706     RIV_SYS1                         
                 RIV =           0.0000                   RIV =           0.0000     RIV_SYS2                         
                 RCH =      278950.2249                   RCH =        3387.6437     RCH_MSW                          

            TOTAL IN =      712305.1591              TOTAL IN =        4134.9143

          OUT:                                     OUT:
          ----                                     ----
              STO-SS =       20512.1480                STO-SS =        1822.4192     STORAGE                          
                 DRN =       13625.0650                   DRN =          19.2937     DRN_SYS1                         
                 RIV =      633151.1563                   RIV =        2226.2540     RIV_SYS1                         
                 RIV =       38528.5908                   RIV =          66.9422     RIV_SYS2                         
                 RCH =        6488.4405                   RCH =           0.0000     RCH_MSW                          

           TOTAL OUT =      712305.4006             TOTAL OUT =        4134.9091

            IN - OUT =          -0.2415              IN - OUT =       5.1518E-03

 PERCENT DISCREPANCY =          -0.00     PERCENT DISCREPANCY =           0.00




         TIME SUMMARY AT END OF TIME STEP    1 IN STRESS PERIOD  260
                    SECONDS     MINUTES      HOURS       DAYS        YEARS
                    -----------------------------------------------------------
   TIME STEP LENGTH  86400.      1440.0      24.000      1.0000     2.73785E-03
 STRESS PERIOD TIME  86400.      1440.0      24.000      1.0000     2.73785E-03
         TOTAL TIME 2.24640E+07 3.74400E+05  6240.0      260.00     0.71184    


end timestep


start timestep kper="261" kstp="1" mode="normal"

 #Stressperiod Save Options

 BEGIN READING OUTPUT CONTROL FOR STRESS PERIOD 261
      ALL TIME STEPS WILL BE SAVED
      ALL TIME STEPS WILL BE SAVED

 END READING OUTPUT CONTROL FOR STRESS PERIOD 261


 PROCESSING STORAGE PERIOD DATA
 END PROCESSING STORAGE PERIOD DATA


 STRESS PERIOD 261 IS TRANSIENT


 REUSING DRNS FROM LAST STRESS PERIOD

 REUSING RIVS FROM LAST STRESS PERIOD

 REUSING RIVS FROM LAST STRESS PERIOD

 REUSING RCHS FROM LAST STRESS PERIOD
 UBDSV06 SAVING              DRN IN MODEL GWF_1            PACKAGE GWF_1           CONNECTED TO MODEL GWF_1            PACKAGE DRN_SYS1         ON UNIT   1018 AT TIME STEP      1, STRESS PERIOD    261
 UBDSV06 SAVING              RIV IN MODEL GWF_1            PACKAGE GWF_1           CONNECTED TO MODEL GWF_1            PACKAGE RIV_SYS1         ON UNIT   1018 AT TIME STEP      1, STRESS PERIOD    261
 UBDSV06 SAVING              RIV IN MODEL GWF_1            PACKAGE GWF_1           CONNECTED TO MODEL GWF_1            PACKAGE RIV_SYS2         ON UNIT   1018 AT TIME STEP      1, STRESS PERIOD    261
 UBDSV06 SAVING              RCH IN MODEL GWF_1            PACKAGE GWF_1           CONNECTED TO MODEL GWF_1            PACKAGE RCH_MSW          ON UNIT   1018 AT TIME STEP      1, STRESS PERIOD    261

 HEAD WILL BE SAVED ON UNIT 1017 AT END OF TIME STEP    1, STRESS PERIOD  261


  VOLUME BUDGET FOR ENTIRE MODEL AT END OF TIME STEP    1, STRESS PERIOD 261
  ---------------------------------------------------------------------------------------------------

     CUMULATIVE VOLUME      L**3       RATES FOR THIS TIME STEP      L**3/T          PACKAGE NAME    
     ------------------                 ------------------------                     ----------------

           IN:                                      IN:
           ---                                      ---
              STO-SS =      216047.5544                STO-SS =           5.2087     STORAGE                          
                 DRN =           0.0000                   DRN =           0.0000     DRN_SYS1                         
                 RIV =      218014.4738                   RIV =         701.8853     RIV_SYS1                         
                 RIV =           0.0000                   RIV =           0.0000     RIV_SYS2                         
                 RCH =      282146.2770                   RCH =        3196.0522     RCH_MSW                          

            TOTAL IN =      716208.3052              TOTAL IN =        3903.1461

          OUT:                                     OUT:
          ----                                     ----
              STO-SS =       22000.1322                STO-SS =        1487.9842     STORAGE                          
                 DRN =       13646.9481                   DRN =          21.8832     DRN_SYS1                         
                 RIV =      635469.9630                   RIV =        2318.8068     RIV_SYS1                         
                 RIV =       38603.0455                   RIV =          74.4547     RIV_SYS2                         
                 RCH =        6488.4405                   RCH =           0.0000     RCH_MSW                          

           TOTAL OUT =      716208.5293             TOTAL OUT =        3903.1288

            IN - OUT =          -0.2241              IN - OUT =       1.7383E-02

 PERCENT DISCREPANCY =          -0.00     PERCENT DISCREPANCY =           0.00




         TIME SUMMARY AT END OF TIME STEP    1 IN STRESS PERIOD  261
                    SECONDS     MINUTES      HOURS       DAYS        YEARS
                    -----------------------------------------------------------
   TIME STEP LENGTH  86400.      1440.0      24.000      1.0000     2.73785E-03
 STRESS PERIOD TIME  86400.      1440.0      24.000      1.0000     2.73785E-03
         TOTAL TIME 2.25504E+07 3.75840E+05  6264.0      261.00     0.71458    


end timestep


start timestep kper="262" kstp="1" mode="normal"

 #Stressperiod Save Options

 BEGIN READING OUTPUT CONTROL FOR STRESS PERIOD 262
      ALL TIME STEPS WILL BE SAVED
      ALL TIME STEPS WILL BE SAVED

 END READING OUTPUT CONTROL FOR STRESS PERIOD 262


 PROCESSING STORAGE PERIOD DATA
 END PROCESSING STORAGE PERIOD DATA


 STRESS PERIOD 262 IS TRANSIENT


 REUSING DRNS FROM LAST STRESS PERIOD

 REUSING RIVS FROM LAST STRESS PERIOD

 REUSING RIVS FROM LAST STRESS PERIOD

 REUSING RCHS FROM LAST STRESS PERIOD
 UBDSV06 SAVING              DRN IN MODEL GWF_1            PACKAGE GWF_1           CONNECTED TO MODEL GWF_1            PACKAGE DRN_SYS1         ON UNIT   1018 AT TIME STEP      1, STRESS PERIOD    262
 UBDSV06 SAVING              RIV IN MODEL GWF_1            PACKAGE GWF_1           CONNECTED TO MODEL GWF_1            PACKAGE RIV_SYS1         ON UNIT   1018 AT TIME STEP      1, STRESS PERIOD    262
 UBDSV06 SAVING              RIV IN MODEL GWF_1            PACKAGE GWF_1           CONNECTED TO MODEL GWF_1            PACKAGE RIV_SYS2         ON UNIT   1018 AT TIME STEP      1, STRESS PERIOD    262
 UBDSV06 SAVING              RCH IN MODEL GWF_1            PACKAGE GWF_1           CONNECTED TO MODEL GWF_1            PACKAGE RCH_MSW          ON UNIT   1018 AT TIME STEP      1, STRESS PERIOD    262

 HEAD WILL BE SAVED ON UNIT 1017 AT END OF TIME STEP    1, STRESS PERIOD  262


  VOLUME BUDGET FOR ENTIRE MODEL AT END OF TIME STEP    1, STRESS PERIOD 262
  ---------------------------------------------------------------------------------------------------

     CUMULATIVE VOLUME      L**3       RATES FOR THIS TIME STEP      L**3/T          PACKAGE NAME    
     ------------------                 ------------------------                     ----------------

           IN:                                      IN:
           ---                                      ---
              STO-SS =      216079.7365                STO-SS =          32.1821     STORAGE                          
                 DRN =           0.0000                   DRN =           0.0000     DRN_SYS1                         
                 RIV =      218701.8001                   RIV =         687.3263     RIV_SYS1                         
                 RIV =           0.0000                   RIV =           0.0000     RIV_SYS2                         
                 RCH =      285109.8869                   RCH =        2963.6099     RCH_MSW                          

            TOTAL IN =      719891.4235              TOTAL IN =        3683.1183

          OUT:                                     OUT:
          ----                                     ----
              STO-SS =       23248.6185                STO-SS =        1248.4863     STORAGE                          
                 DRN =       13671.3871                   DRN =          24.4390     DRN_SYS1                         
                 RIV =      637798.5453                   RIV =        2328.5823     RIV_SYS1                         
                 RIV =       38684.6414                   RIV =          81.5959     RIV_SYS2                         
                 RCH =        6488.4405                   RCH =           0.0000     RCH_MSW                          

           TOTAL OUT =      719891.6327             TOTAL OUT =        3683.1034

            IN - OUT =          -0.2092              IN - OUT =       1.4861E-02

 PERCENT DISCREPANCY =          -0.00     PERCENT DISCREPANCY =           0.00




         TIME SUMMARY AT END OF TIME STEP    1 IN STRESS PERIOD  262
                    SECONDS     MINUTES      HOURS       DAYS        YEARS
                    -----------------------------------------------------------
   TIME STEP LENGTH  86400.      1440.0      24.000      1.0000     2.73785E-03
 STRESS PERIOD TIME  86400.      1440.0      24.000      1.0000     2.73785E-03
         TOTAL TIME 2.26368E+07 3.77280E+05  6288.0      262.00     0.71732    


end timestep


start timestep kper="263" kstp="1" mode="normal"

 #Stressperiod Save Options

 BEGIN READING OUTPUT CONTROL FOR STRESS PERIOD 263
      ALL TIME STEPS WILL BE SAVED
      ALL TIME STEPS WILL BE SAVED

 END READING OUTPUT CONTROL FOR STRESS PERIOD 263


 PROCESSING STORAGE PERIOD DATA
 END PROCESSING STORAGE PERIOD DATA


 STRESS PERIOD 263 IS TRANSIENT


 REUSING DRNS FROM LAST STRESS PERIOD

 REUSING RIVS FROM LAST STRESS PERIOD

 REUSING RIVS FROM LAST STRESS PERIOD

 REUSING RCHS FROM LAST STRESS PERIOD
 UBDSV06 SAVING              DRN IN MODEL GWF_1            PACKAGE GWF_1           CONNECTED TO MODEL GWF_1            PACKAGE DRN_SYS1         ON UNIT   1018 AT TIME STEP      1, STRESS PERIOD    263
 UBDSV06 SAVING              RIV IN MODEL GWF_1            PACKAGE GWF_1           CONNECTED TO MODEL GWF_1            PACKAGE RIV_SYS1         ON UNIT   1018 AT TIME STEP      1, STRESS PERIOD    263
 UBDSV06 SAVING              RIV IN MODEL GWF_1            PACKAGE GWF_1           CONNECTED TO MODEL GWF_1            PACKAGE RIV_SYS2         ON UNIT   1018 AT TIME STEP      1, STRESS PERIOD    263
 UBDSV06 SAVING              RCH IN MODEL GWF_1            PACKAGE GWF_1           CONNECTED TO MODEL GWF_1            PACKAGE RCH_MSW          ON UNIT   1018 AT TIME STEP      1, STRESS PERIOD    263

 HEAD WILL BE SAVED ON UNIT 1017 AT END OF TIME STEP    1, STRESS PERIOD  263


  VOLUME BUDGET FOR ENTIRE MODEL AT END OF TIME STEP    1, STRESS PERIOD 263
  ---------------------------------------------------------------------------------------------------

     CUMULATIVE VOLUME      L**3       RATES FOR THIS TIME STEP      L**3/T          PACKAGE NAME    
     ------------------                 ------------------------                     ----------------

           IN:                                      IN:
           ---                                      ---
              STO-SS =      216079.7365                STO-SS =           0.0000     STORAGE                          
                 DRN =           0.0000                   DRN =           0.0000     DRN_SYS1                         
                 RIV =      219324.0284                   RIV =         622.2283     RIV_SYS1                         
                 RIV =           0.0000                   RIV =           0.0000     RIV_SYS2                         
                 RCH =      288911.4611                   RCH =        3801.5742     RCH_MSW                          

            TOTAL IN =      724315.2260              TOTAL IN =        4423.8025

          OUT:                                     OUT:
          ----                                     ----
              STO-SS =       25056.8617                STO-SS =        1808.2433     STORAGE                          
                 DRN =       13699.2100                   DRN =          27.8229     DRN_SYS1                         
                 RIV =      640295.3186                   RIV =        2496.7733     RIV_SYS1                         
                 RIV =       38775.6036                   RIV =          90.9622     RIV_SYS2                         
                 RCH =        6488.4405                   RCH =           0.0000     RCH_MSW                          

           TOTAL OUT =      724315.4344             TOTAL OUT =        4423.8017

            IN - OUT =          -0.2084              IN - OUT =       8.4681E-04

 PERCENT DISCREPANCY =          -0.00     PERCENT DISCREPANCY =           0.00




         TIME SUMMARY AT END OF TIME STEP    1 IN STRESS PERIOD  263
                    SECONDS     MINUTES      HOURS       DAYS        YEARS
                    -----------------------------------------------------------
   TIME STEP LENGTH  86400.      1440.0      24.000      1.0000     2.73785E-03
 STRESS PERIOD TIME  86400.      1440.0      24.000      1.0000     2.73785E-03
         TOTAL TIME 2.27232E+07 3.78720E+05  6312.0      263.00     0.72005    


end timestep


start timestep kper="264" kstp="1" mode="normal"

 #Stressperiod Save Options

 BEGIN READING OUTPUT CONTROL FOR STRESS PERIOD 264
      ALL TIME STEPS WILL BE SAVED
      ALL TIME STEPS WILL BE SAVED

 END READING OUTPUT CONTROL FOR STRESS PERIOD 264


 PROCESSING STORAGE PERIOD DATA
 END PROCESSING STORAGE PERIOD DATA


 STRESS PERIOD 264 IS TRANSIENT


 REUSING DRNS FROM LAST STRESS PERIOD

 REUSING RIVS FROM LAST STRESS PERIOD

 REUSING RIVS FROM LAST STRESS PERIOD

 REUSING RCHS FROM LAST STRESS PERIOD
 UBDSV06 SAVING              DRN IN MODEL GWF_1            PACKAGE GWF_1           CONNECTED TO MODEL GWF_1            PACKAGE DRN_SYS1         ON UNIT   1018 AT TIME STEP      1, STRESS PERIOD    264
 UBDSV06 SAVING              RIV IN MODEL GWF_1            PACKAGE GWF_1           CONNECTED TO MODEL GWF_1            PACKAGE RIV_SYS1         ON UNIT   1018 AT TIME STEP      1, STRESS PERIOD    264
 UBDSV06 SAVING              RIV IN MODEL GWF_1            PACKAGE GWF_1           CONNECTED TO MODEL GWF_1            PACKAGE RIV_SYS2         ON UNIT   1018 AT TIME STEP      1, STRESS PERIOD    264
 UBDSV06 SAVING              RCH IN MODEL GWF_1            PACKAGE GWF_1           CONNECTED TO MODEL GWF_1            PACKAGE RCH_MSW          ON UNIT   1018 AT TIME STEP      1, STRESS PERIOD    264

 HEAD WILL BE SAVED ON UNIT 1017 AT END OF TIME STEP    1, STRESS PERIOD  264


  VOLUME BUDGET FOR ENTIRE MODEL AT END OF TIME STEP    1, STRESS PERIOD 264
  ---------------------------------------------------------------------------------------------------

     CUMULATIVE VOLUME      L**3       RATES FOR THIS TIME STEP      L**3/T          PACKAGE NAME    
     ------------------                 ------------------------                     ----------------

           IN:                                      IN:
           ---                                      ---
              STO-SS =      216095.3647                STO-SS =          15.6282     STORAGE                          
                 DRN =           0.0000                   DRN =           0.0000     DRN_SYS1                         
                 RIV =      219927.4796                   RIV =         603.4512     RIV_SYS1                         
                 RIV =           0.0000                   RIV =           0.0000     RIV_SYS2                         
                 RCH =      292398.6414                   RCH =        3487.1803     RCH_MSW                          

            TOTAL IN =      728421.4857              TOTAL IN =        4106.2597

          OUT:                                     OUT:
          ----                                     ----
              STO-SS =       26501.1463                STO-SS =        1444.2846     STORAGE                          
                 DRN =       13730.2010                   DRN =          30.9910     DRN_SYS1                         
                 RIV =      642826.8843                   RIV =        2531.5657     RIV_SYS1                         
                 RIV =       38875.0324                   RIV =          99.4288     RIV_SYS2                         
                 RCH =        6488.4405                   RCH =           0.0000     RCH_MSW                          

           TOTAL OUT =      728421.7046             TOTAL OUT =        4106.2702

            IN - OUT =          -0.2189              IN - OUT =      -1.0453E-02

 PERCENT DISCREPANCY =          -0.00     PERCENT DISCREPANCY =          -0.00




         TIME SUMMARY AT END OF TIME STEP    1 IN STRESS PERIOD  264
                    SECONDS     MINUTES      HOURS       DAYS        YEARS
                    -----------------------------------------------------------
   TIME STEP LENGTH  86400.      1440.0      24.000      1.0000     2.73785E-03
 STRESS PERIOD TIME  86400.      1440.0      24.000      1.0000     2.73785E-03
         TOTAL TIME 2.28096E+07 3.80160E+05  6336.0      264.00     0.72279    


end timestep


start timestep kper="265" kstp="1" mode="normal"

 #Stressperiod Save Options

 BEGIN READING OUTPUT CONTROL FOR STRESS PERIOD 265
      ALL TIME STEPS WILL BE SAVED
      ALL TIME STEPS WILL BE SAVED

 END READING OUTPUT CONTROL FOR STRESS PERIOD 265


 PROCESSING STORAGE PERIOD DATA
 END PROCESSING STORAGE PERIOD DATA


 STRESS PERIOD 265 IS TRANSIENT


 REUSING DRNS FROM LAST STRESS PERIOD

 REUSING RIVS FROM LAST STRESS PERIOD

 REUSING RIVS FROM LAST STRESS PERIOD

 REUSING RCHS FROM LAST STRESS PERIOD
 UBDSV06 SAVING              DRN IN MODEL GWF_1            PACKAGE GWF_1           CONNECTED TO MODEL GWF_1            PACKAGE DRN_SYS1         ON UNIT   1018 AT TIME STEP      1, STRESS PERIOD    265
 UBDSV06 SAVING              RIV IN MODEL GWF_1            PACKAGE GWF_1           CONNECTED TO MODEL GWF_1            PACKAGE RIV_SYS1         ON UNIT   1018 AT TIME STEP      1, STRESS PERIOD    265
 UBDSV06 SAVING              RIV IN MODEL GWF_1            PACKAGE GWF_1           CONNECTED TO MODEL GWF_1            PACKAGE RIV_SYS2         ON UNIT   1018 AT TIME STEP      1, STRESS PERIOD    265
 UBDSV06 SAVING              RCH IN MODEL GWF_1            PACKAGE GWF_1           CONNECTED TO MODEL GWF_1            PACKAGE RCH_MSW          ON UNIT   1018 AT TIME STEP      1, STRESS PERIOD    265

 HEAD WILL BE SAVED ON UNIT 1017 AT END OF TIME STEP    1, STRESS PERIOD  265


  VOLUME BUDGET FOR ENTIRE MODEL AT END OF TIME STEP    1, STRESS PERIOD 265
  ---------------------------------------------------------------------------------------------------

     CUMULATIVE VOLUME      L**3       RATES FOR THIS TIME STEP      L**3/T          PACKAGE NAME    
     ------------------                 ------------------------                     ----------------

           IN:                                      IN:
           ---                                      ---
              STO-SS =      216164.7230                STO-SS =          69.3583     STORAGE                          
                 DRN =           0.0000                   DRN =           0.0000     DRN_SYS1                         
                 RIV =      220535.9845                   RIV =         608.5049     RIV_SYS1                         
                 RIV =           0.0000                   RIV =           0.0000     RIV_SYS2                         
                 RCH =      295479.4791                   RCH =        3080.8377     RCH_MSW                          

            TOTAL IN =      732180.1866              TOTAL IN =        3758.7009

          OUT:                                     OUT:
          ----                                     ----
              STO-SS =       27621.3413                STO-SS =        1120.1950     STORAGE                          
                 DRN =       13763.8248                   DRN =          33.6238     DRN_SYS1                         
                 RIV =      645325.5882                   RIV =        2498.7039     RIV_SYS1                         
                 RIV =       38981.2108                   RIV =         106.1784     RIV_SYS2                         
                 RCH =        6488.4405                   RCH =           0.0000     RCH_MSW                          

           TOTAL OUT =      732180.4056             TOTAL OUT =        3758.7011

            IN - OUT =          -0.2190              IN - OUT =      -1.4990E-04

 PERCENT DISCREPANCY =          -0.00     PERCENT DISCREPANCY =          -0.00




         TIME SUMMARY AT END OF TIME STEP    1 IN STRESS PERIOD  265
                    SECONDS     MINUTES      HOURS       DAYS        YEARS
                    -----------------------------------------------------------
   TIME STEP LENGTH  86400.      1440.0      24.000      1.0000     2.73785E-03
 STRESS PERIOD TIME  86400.      1440.0      24.000      1.0000     2.73785E-03
         TOTAL TIME 2.28960E+07 3.81600E+05  6360.0      265.00     0.72553    


end timestep


start timestep kper="266" kstp="1" mode="normal"

 #Stressperiod Save Options

 BEGIN READING OUTPUT CONTROL FOR STRESS PERIOD 266
      ALL TIME STEPS WILL BE SAVED
      ALL TIME STEPS WILL BE SAVED

 END READING OUTPUT CONTROL FOR STRESS PERIOD 266


 PROCESSING STORAGE PERIOD DATA
 END PROCESSING STORAGE PERIOD DATA


 STRESS PERIOD 266 IS TRANSIENT


 REUSING DRNS FROM LAST STRESS PERIOD

 REUSING RIVS FROM LAST STRESS PERIOD

 REUSING RIVS FROM LAST STRESS PERIOD

 REUSING RCHS FROM LAST STRESS PERIOD
 UBDSV06 SAVING              DRN IN MODEL GWF_1            PACKAGE GWF_1           CONNECTED TO MODEL GWF_1            PACKAGE DRN_SYS1         ON UNIT   1018 AT TIME STEP      1, STRESS PERIOD    266
 UBDSV06 SAVING              RIV IN MODEL GWF_1            PACKAGE GWF_1           CONNECTED TO MODEL GWF_1            PACKAGE RIV_SYS1         ON UNIT   1018 AT TIME STEP      1, STRESS PERIOD    266
 UBDSV06 SAVING              RIV IN MODEL GWF_1            PACKAGE GWF_1           CONNECTED TO MODEL GWF_1            PACKAGE RIV_SYS2         ON UNIT   1018 AT TIME STEP      1, STRESS PERIOD    266
 UBDSV06 SAVING              RCH IN MODEL GWF_1            PACKAGE GWF_1           CONNECTED TO MODEL GWF_1            PACKAGE RCH_MSW          ON UNIT   1018 AT TIME STEP      1, STRESS PERIOD    266

 HEAD WILL BE SAVED ON UNIT 1017 AT END OF TIME STEP    1, STRESS PERIOD  266


  VOLUME BUDGET FOR ENTIRE MODEL AT END OF TIME STEP    1, STRESS PERIOD 266
  ---------------------------------------------------------------------------------------------------

     CUMULATIVE VOLUME      L**3       RATES FOR THIS TIME STEP      L**3/T          PACKAGE NAME    
     ------------------                 ------------------------                     ----------------

           IN:                                      IN:
           ---                                      ---
              STO-SS =      216277.8099                STO-SS =         113.0870     STORAGE                          
                 DRN =           0.0000                   DRN =           0.0000     DRN_SYS1                         
                 RIV =      221159.1446                   RIV =         623.1601     RIV_SYS1                         
                 RIV =           0.0000                   RIV =           0.0000     RIV_SYS2                         
                 RCH =      298206.0209                   RCH =        2726.5418     RCH_MSW                          

            TOTAL IN =      735642.9754              TOTAL IN =        3462.7888

          OUT:                                     OUT:
          ----                                     ----
              STO-SS =       28494.9918                STO-SS =         873.6505     STORAGE                          
                 DRN =       13799.5139                   DRN =          35.6891     DRN_SYS1                         
                 RIV =      647767.8173                   RIV =        2442.2290     RIV_SYS1                         
                 RIV =       39092.4248                   RIV =         111.2140     RIV_SYS2                         
                 RCH =        6488.4405                   RCH =           0.0000     RCH_MSW                          

           TOTAL OUT =      735643.1882             TOTAL OUT =        3462.7825

            IN - OUT =          -0.2128              IN - OUT =       6.2459E-03

 PERCENT DISCREPANCY =          -0.00     PERCENT DISCREPANCY =           0.00




         TIME SUMMARY AT END OF TIME STEP    1 IN STRESS PERIOD  266
                    SECONDS     MINUTES      HOURS       DAYS        YEARS
                    -----------------------------------------------------------
   TIME STEP LENGTH  86400.      1440.0      24.000      1.0000     2.73785E-03
 STRESS PERIOD TIME  86400.      1440.0      24.000      1.0000     2.73785E-03
         TOTAL TIME 2.29824E+07 3.83040E+05  6384.0      266.00     0.72827    


end timestep


start timestep kper="267" kstp="1" mode="normal"

 #Stressperiod Save Options

 BEGIN READING OUTPUT CONTROL FOR STRESS PERIOD 267
      ALL TIME STEPS WILL BE SAVED
      ALL TIME STEPS WILL BE SAVED

 END READING OUTPUT CONTROL FOR STRESS PERIOD 267


 PROCESSING STORAGE PERIOD DATA
 END PROCESSING STORAGE PERIOD DATA


 STRESS PERIOD 267 IS TRANSIENT


 REUSING DRNS FROM LAST STRESS PERIOD

 REUSING RIVS FROM LAST STRESS PERIOD

 REUSING RIVS FROM LAST STRESS PERIOD

 REUSING RCHS FROM LAST STRESS PERIOD
 UBDSV06 SAVING              DRN IN MODEL GWF_1            PACKAGE GWF_1           CONNECTED TO MODEL GWF_1            PACKAGE DRN_SYS1         ON UNIT   1018 AT TIME STEP      1, STRESS PERIOD    267
 UBDSV06 SAVING              RIV IN MODEL GWF_1            PACKAGE GWF_1           CONNECTED TO MODEL GWF_1            PACKAGE RIV_SYS1         ON UNIT   1018 AT TIME STEP      1, STRESS PERIOD    267
 UBDSV06 SAVING              RIV IN MODEL GWF_1            PACKAGE GWF_1           CONNECTED TO MODEL GWF_1            PACKAGE RIV_SYS2         ON UNIT   1018 AT TIME STEP      1, STRESS PERIOD    267
 UBDSV06 SAVING              RCH IN MODEL GWF_1            PACKAGE GWF_1           CONNECTED TO MODEL GWF_1            PACKAGE RCH_MSW          ON UNIT   1018 AT TIME STEP      1, STRESS PERIOD    267

 HEAD WILL BE SAVED ON UNIT 1017 AT END OF TIME STEP    1, STRESS PERIOD  267


  VOLUME BUDGET FOR ENTIRE MODEL AT END OF TIME STEP    1, STRESS PERIOD 267
  ---------------------------------------------------------------------------------------------------

     CUMULATIVE VOLUME      L**3       RATES FOR THIS TIME STEP      L**3/T          PACKAGE NAME    
     ------------------                 ------------------------                     ----------------

           IN:                                      IN:
           ---                                      ---
              STO-SS =      216412.5996                STO-SS =         134.7897     STORAGE                          
                 DRN =           0.0000                   DRN =           0.0000     DRN_SYS1                         
                 RIV =      221799.2896                   RIV =         640.1450     RIV_SYS1                         
                 RIV =           0.0000                   RIV =           0.0000     RIV_SYS2                         
                 RCH =      300657.3503                   RCH =        2451.3294     RCH_MSW                          

            TOTAL IN =      738869.2396              TOTAL IN =        3226.2641

          OUT:                                     OUT:
          ----                                     ----
              STO-SS =       29185.4652                STO-SS =         690.4735     STORAGE                          
                 DRN =       13836.7850                   DRN =          37.2711     DRN_SYS1                         
                 RIV =      650151.4362                   RIV =        2383.6189     RIV_SYS1                         
                 RIV =       39207.2880                   RIV =         114.8632     RIV_SYS2                         
                 RCH =        6488.4405                   RCH =           0.0000     RCH_MSW                          

           TOTAL OUT =      738869.4149             TOTAL OUT =        3226.2267

            IN - OUT =          -0.1753              IN - OUT =       3.7454E-02

 PERCENT DISCREPANCY =          -0.00     PERCENT DISCREPANCY =           0.00




         TIME SUMMARY AT END OF TIME STEP    1 IN STRESS PERIOD  267
                    SECONDS     MINUTES      HOURS       DAYS        YEARS
                    -----------------------------------------------------------
   TIME STEP LENGTH  86400.      1440.0      24.000      1.0000     2.73785E-03
 STRESS PERIOD TIME  86400.      1440.0      24.000      1.0000     2.73785E-03
         TOTAL TIME 2.30688E+07 3.84480E+05  6408.0      267.00     0.73101    


end timestep


start timestep kper="268" kstp="1" mode="normal"

 #Stressperiod Save Options

 BEGIN READING OUTPUT CONTROL FOR STRESS PERIOD 268
      ALL TIME STEPS WILL BE SAVED
      ALL TIME STEPS WILL BE SAVED

 END READING OUTPUT CONTROL FOR STRESS PERIOD 268


 PROCESSING STORAGE PERIOD DATA
 END PROCESSING STORAGE PERIOD DATA


 STRESS PERIOD 268 IS TRANSIENT


 REUSING DRNS FROM LAST STRESS PERIOD

 REUSING RIVS FROM LAST STRESS PERIOD

 REUSING RIVS FROM LAST STRESS PERIOD

 REUSING RCHS FROM LAST STRESS PERIOD
 UBDSV06 SAVING              DRN IN MODEL GWF_1            PACKAGE GWF_1           CONNECTED TO MODEL GWF_1            PACKAGE DRN_SYS1         ON UNIT   1018 AT TIME STEP      1, STRESS PERIOD    268
 UBDSV06 SAVING              RIV IN MODEL GWF_1            PACKAGE GWF_1           CONNECTED TO MODEL GWF_1            PACKAGE RIV_SYS1         ON UNIT   1018 AT TIME STEP      1, STRESS PERIOD    268
 UBDSV06 SAVING              RIV IN MODEL GWF_1            PACKAGE GWF_1           CONNECTED TO MODEL GWF_1            PACKAGE RIV_SYS2         ON UNIT   1018 AT TIME STEP      1, STRESS PERIOD    268
 UBDSV06 SAVING              RCH IN MODEL GWF_1            PACKAGE GWF_1           CONNECTED TO MODEL GWF_1            PACKAGE RCH_MSW          ON UNIT   1018 AT TIME STEP      1, STRESS PERIOD    268

 HEAD WILL BE SAVED ON UNIT 1017 AT END OF TIME STEP    1, STRESS PERIOD  268


  VOLUME BUDGET FOR ENTIRE MODEL AT END OF TIME STEP    1, STRESS PERIOD 268
  ---------------------------------------------------------------------------------------------------

     CUMULATIVE VOLUME      L**3       RATES FOR THIS TIME STEP      L**3/T          PACKAGE NAME    
     ------------------                 ------------------------                     ----------------

           IN:                                      IN:
           ---                                      ---
              STO-SS =      216559.9102                STO-SS =         147.3105     STORAGE                          
                 DRN =           0.0000                   DRN =           0.0000     DRN_SYS1                         
                 RIV =      222456.8212                   RIV =         657.5316     RIV_SYS1                         
                 RIV =           0.0000                   RIV =           0.0000     RIV_SYS2                         
                 RCH =      302877.1092                   RCH =        2219.7589     RCH_MSW                          

            TOTAL IN =      741893.8406              TOTAL IN =        3024.6010

          OUT:                                     OUT:
          ----                                     ----
              STO-SS =       29726.9065                STO-SS =         541.4412     STORAGE                          
                 DRN =       13875.2375                   DRN =          38.4525     DRN_SYS1                         
                 RIV =      652478.6843                   RIV =        2327.2481     RIV_SYS1                         
                 RIV =       39324.7117                   RIV =         117.4237     RIV_SYS2                         
                 RCH =        6488.4405                   RCH =           0.0000     RCH_MSW                          

           TOTAL OUT =      741893.9804             TOTAL OUT =        3024.5655

            IN - OUT =          -0.1398              IN - OUT =       3.5494E-02

 PERCENT DISCREPANCY =          -0.00     PERCENT DISCREPANCY =           0.00




         TIME SUMMARY AT END OF TIME STEP    1 IN STRESS PERIOD  268
                    SECONDS     MINUTES      HOURS       DAYS        YEARS
                    -----------------------------------------------------------
   TIME STEP LENGTH  86400.      1440.0      24.000      1.0000     2.73785E-03
 STRESS PERIOD TIME  86400.      1440.0      24.000      1.0000     2.73785E-03
         TOTAL TIME 2.31552E+07 3.85920E+05  6432.0      268.00     0.73374    


end timestep


start timestep kper="269" kstp="1" mode="normal"

 #Stressperiod Save Options

 BEGIN READING OUTPUT CONTROL FOR STRESS PERIOD 269
      ALL TIME STEPS WILL BE SAVED
      ALL TIME STEPS WILL BE SAVED

 END READING OUTPUT CONTROL FOR STRESS PERIOD 269


 PROCESSING STORAGE PERIOD DATA
 END PROCESSING STORAGE PERIOD DATA


 STRESS PERIOD 269 IS TRANSIENT


 REUSING DRNS FROM LAST STRESS PERIOD

 REUSING RIVS FROM LAST STRESS PERIOD

 REUSING RIVS FROM LAST STRESS PERIOD

 REUSING RCHS FROM LAST STRESS PERIOD
 UBDSV06 SAVING              DRN IN MODEL GWF_1            PACKAGE GWF_1           CONNECTED TO MODEL GWF_1            PACKAGE DRN_SYS1         ON UNIT   1018 AT TIME STEP      1, STRESS PERIOD    269
 UBDSV06 SAVING              RIV IN MODEL GWF_1            PACKAGE GWF_1           CONNECTED TO MODEL GWF_1            PACKAGE RIV_SYS1         ON UNIT   1018 AT TIME STEP      1, STRESS PERIOD    269
 UBDSV06 SAVING              RIV IN MODEL GWF_1            PACKAGE GWF_1           CONNECTED TO MODEL GWF_1            PACKAGE RIV_SYS2         ON UNIT   1018 AT TIME STEP      1, STRESS PERIOD    269
 UBDSV06 SAVING              RCH IN MODEL GWF_1            PACKAGE GWF_1           CONNECTED TO MODEL GWF_1            PACKAGE RCH_MSW          ON UNIT   1018 AT TIME STEP      1, STRESS PERIOD    269

 HEAD WILL BE SAVED ON UNIT 1017 AT END OF TIME STEP    1, STRESS PERIOD  269


  VOLUME BUDGET FOR ENTIRE MODEL AT END OF TIME STEP    1, STRESS PERIOD 269
  ---------------------------------------------------------------------------------------------------

     CUMULATIVE VOLUME      L**3       RATES FOR THIS TIME STEP      L**3/T          PACKAGE NAME    
     ------------------                 ------------------------                     ----------------

           IN:                                      IN:
           ---                                      ---
              STO-SS =      216709.5565                STO-SS =         149.6463     STORAGE                          
                 DRN =           0.0000                   DRN =           0.0000     DRN_SYS1                         
                 RIV =      223131.4804                   RIV =         674.6592     RIV_SYS1                         
                 RIV =           0.0000                   RIV =           0.0000     RIV_SYS2                         
                 RCH =      304913.7255                   RCH =        2036.6163     RCH_MSW                          

            TOTAL IN =      744754.7624              TOTAL IN =        2860.9218

          OUT:                                     OUT:
          ----                                     ----
              STO-SS =       30152.1479                STO-SS =         425.2414     STORAGE                          
                 DRN =       13914.5626                   DRN =          39.3251     DRN_SYS1                         
                 RIV =      654755.8353                   RIV =        2277.1511     RIV_SYS1                         
                 RIV =       39443.8825                   RIV =         119.1708     RIV_SYS2                         
                 RCH =        6488.4405                   RCH =           0.0000     RCH_MSW                          

           TOTAL OUT =      744754.8688             TOTAL OUT =        2860.8884

            IN - OUT =          -0.1064              IN - OUT =       3.3459E-02

 PERCENT DISCREPANCY =          -0.00     PERCENT DISCREPANCY =           0.00




         TIME SUMMARY AT END OF TIME STEP    1 IN STRESS PERIOD  269
                    SECONDS     MINUTES      HOURS       DAYS        YEARS
                    -----------------------------------------------------------
   TIME STEP LENGTH  86400.      1440.0      24.000      1.0000     2.73785E-03
 STRESS PERIOD TIME  86400.      1440.0      24.000      1.0000     2.73785E-03
         TOTAL TIME 2.32416E+07 3.87360E+05  6456.0      269.00     0.73648    


end timestep


start timestep kper="270" kstp="1" mode="normal"

 #Stressperiod Save Options

 BEGIN READING OUTPUT CONTROL FOR STRESS PERIOD 270
      ALL TIME STEPS WILL BE SAVED
      ALL TIME STEPS WILL BE SAVED

 END READING OUTPUT CONTROL FOR STRESS PERIOD 270


 PROCESSING STORAGE PERIOD DATA
 END PROCESSING STORAGE PERIOD DATA


 STRESS PERIOD 270 IS TRANSIENT


 REUSING DRNS FROM LAST STRESS PERIOD

 REUSING RIVS FROM LAST STRESS PERIOD

 REUSING RIVS FROM LAST STRESS PERIOD

 REUSING RCHS FROM LAST STRESS PERIOD
 UBDSV06 SAVING              DRN IN MODEL GWF_1            PACKAGE GWF_1           CONNECTED TO MODEL GWF_1            PACKAGE DRN_SYS1         ON UNIT   1018 AT TIME STEP      1, STRESS PERIOD    270
 UBDSV06 SAVING              RIV IN MODEL GWF_1            PACKAGE GWF_1           CONNECTED TO MODEL GWF_1            PACKAGE RIV_SYS1         ON UNIT   1018 AT TIME STEP      1, STRESS PERIOD    270
 UBDSV06 SAVING              RIV IN MODEL GWF_1            PACKAGE GWF_1           CONNECTED TO MODEL GWF_1            PACKAGE RIV_SYS2         ON UNIT   1018 AT TIME STEP      1, STRESS PERIOD    270
 UBDSV06 SAVING              RCH IN MODEL GWF_1            PACKAGE GWF_1           CONNECTED TO MODEL GWF_1            PACKAGE RCH_MSW          ON UNIT   1018 AT TIME STEP      1, STRESS PERIOD    270

 HEAD WILL BE SAVED ON UNIT 1017 AT END OF TIME STEP    1, STRESS PERIOD  270


  VOLUME BUDGET FOR ENTIRE MODEL AT END OF TIME STEP    1, STRESS PERIOD 270
  ---------------------------------------------------------------------------------------------------

     CUMULATIVE VOLUME      L**3       RATES FOR THIS TIME STEP      L**3/T          PACKAGE NAME    
     ------------------                 ------------------------                     ----------------

           IN:                                      IN:
           ---                                      ---
              STO-SS =      216863.6720                STO-SS =         154.1155     STORAGE                          
                 DRN =           0.0000                   DRN =           0.0000     DRN_SYS1                         
                 RIV =      223824.0975                   RIV =         692.6170     RIV_SYS1                         
                 RIV =           0.0000                   RIV =           0.0000     RIV_SYS2                         
                 RCH =      306791.3102                   RCH =        1877.5847     RCH_MSW                          

            TOTAL IN =      747479.0797              TOTAL IN =        2724.3173

          OUT:                                     OUT:
          ----                                     ----
              STO-SS =       30482.6843                STO-SS =         330.5364     STORAGE                          
                 DRN =       13954.5130                   DRN =          39.9504     DRN_SYS1                         
                 RIV =      656989.3642                   RIV =        2233.5289     RIV_SYS1                         
                 RIV =       39564.1592                   RIV =         120.2767     RIV_SYS2                         
                 RCH =        6488.4405                   RCH =           0.0000     RCH_MSW                          

           TOTAL OUT =      747479.1611             TOTAL OUT =        2724.2924

            IN - OUT =      -8.1472E-02              IN - OUT =       2.4880E-02

 PERCENT DISCREPANCY =          -0.00     PERCENT DISCREPANCY =           0.00




         TIME SUMMARY AT END OF TIME STEP    1 IN STRESS PERIOD  270
                    SECONDS     MINUTES      HOURS       DAYS        YEARS
                    -----------------------------------------------------------
   TIME STEP LENGTH  86400.      1440.0      24.000      1.0000     2.73785E-03
 STRESS PERIOD TIME  86400.      1440.0      24.000      1.0000     2.73785E-03
         TOTAL TIME 2.33280E+07 3.88800E+05  6480.0      270.00     0.73922    


end timestep


start timestep kper="271" kstp="1" mode="normal"

 #Stressperiod Save Options

 BEGIN READING OUTPUT CONTROL FOR STRESS PERIOD 271
      ALL TIME STEPS WILL BE SAVED
      ALL TIME STEPS WILL BE SAVED

 END READING OUTPUT CONTROL FOR STRESS PERIOD 271


 PROCESSING STORAGE PERIOD DATA
 END PROCESSING STORAGE PERIOD DATA


 STRESS PERIOD 271 IS TRANSIENT


 REUSING DRNS FROM LAST STRESS PERIOD

 REUSING RIVS FROM LAST STRESS PERIOD

 REUSING RIVS FROM LAST STRESS PERIOD

 REUSING RCHS FROM LAST STRESS PERIOD
 UBDSV06 SAVING              DRN IN MODEL GWF_1            PACKAGE GWF_1           CONNECTED TO MODEL GWF_1            PACKAGE DRN_SYS1         ON UNIT   1018 AT TIME STEP      1, STRESS PERIOD    271
 UBDSV06 SAVING              RIV IN MODEL GWF_1            PACKAGE GWF_1           CONNECTED TO MODEL GWF_1            PACKAGE RIV_SYS1         ON UNIT   1018 AT TIME STEP      1, STRESS PERIOD    271
 UBDSV06 SAVING              RIV IN MODEL GWF_1            PACKAGE GWF_1           CONNECTED TO MODEL GWF_1            PACKAGE RIV_SYS2         ON UNIT   1018 AT TIME STEP      1, STRESS PERIOD    271
 UBDSV06 SAVING              RCH IN MODEL GWF_1            PACKAGE GWF_1           CONNECTED TO MODEL GWF_1            PACKAGE RCH_MSW          ON UNIT   1018 AT TIME STEP      1, STRESS PERIOD    271

 HEAD WILL BE SAVED ON UNIT 1017 AT END OF TIME STEP    1, STRESS PERIOD  271


  VOLUME BUDGET FOR ENTIRE MODEL AT END OF TIME STEP    1, STRESS PERIOD 271
  ---------------------------------------------------------------------------------------------------

     CUMULATIVE VOLUME      L**3       RATES FOR THIS TIME STEP      L**3/T          PACKAGE NAME    
     ------------------                 ------------------------                     ----------------

           IN:                                      IN:
           ---                                      ---
              STO-SS =      217022.5847                STO-SS =         158.9127     STORAGE                          
                 DRN =           0.0000                   DRN =           0.0000     DRN_SYS1                         
                 RIV =      224535.2544                   RIV =         711.1570     RIV_SYS1                         
                 RIV =           0.0000                   RIV =           0.0000     RIV_SYS2                         
                 RCH =      308531.5647                   RCH =        1740.2545     RCH_MSW                          

            TOTAL IN =      750089.4038              TOTAL IN =        2610.3242

          OUT:                                     OUT:
          ----                                     ----
              STO-SS =       30736.4090                STO-SS =         253.7247     STORAGE                          
                 DRN =       13994.8868                   DRN =          40.3739     DRN_SYS1                         
                 RIV =      659184.6901                   RIV =        2195.3259     RIV_SYS1                         
                 RIV =       39685.0403                   RIV =         120.8811     RIV_SYS2                         
                 RCH =        6488.4405                   RCH =           0.0000     RCH_MSW                          

           TOTAL OUT =      750089.4667             TOTAL OUT =        2610.3056

            IN - OUT =      -6.2898E-02              IN - OUT =       1.8574E-02

 PERCENT DISCREPANCY =          -0.00     PERCENT DISCREPANCY =           0.00




         TIME SUMMARY AT END OF TIME STEP    1 IN STRESS PERIOD  271
                    SECONDS     MINUTES      HOURS       DAYS        YEARS
                    -----------------------------------------------------------
   TIME STEP LENGTH  86400.      1440.0      24.000      1.0000     2.73785E-03
 STRESS PERIOD TIME  86400.      1440.0      24.000      1.0000     2.73785E-03
         TOTAL TIME 2.34144E+07 3.90240E+05  6504.0      271.00     0.74196    


end timestep


start timestep kper="272" kstp="1" mode="normal"

 #Stressperiod Save Options

 BEGIN READING OUTPUT CONTROL FOR STRESS PERIOD 272
      ALL TIME STEPS WILL BE SAVED
      ALL TIME STEPS WILL BE SAVED

 END READING OUTPUT CONTROL FOR STRESS PERIOD 272


 PROCESSING STORAGE PERIOD DATA
 END PROCESSING STORAGE PERIOD DATA


 STRESS PERIOD 272 IS TRANSIENT


 REUSING DRNS FROM LAST STRESS PERIOD

 REUSING RIVS FROM LAST STRESS PERIOD

 REUSING RIVS FROM LAST STRESS PERIOD

 REUSING RCHS FROM LAST STRESS PERIOD
 UBDSV06 SAVING              DRN IN MODEL GWF_1            PACKAGE GWF_1           CONNECTED TO MODEL GWF_1            PACKAGE DRN_SYS1         ON UNIT   1018 AT TIME STEP      1, STRESS PERIOD    272
 UBDSV06 SAVING              RIV IN MODEL GWF_1            PACKAGE GWF_1           CONNECTED TO MODEL GWF_1            PACKAGE RIV_SYS1         ON UNIT   1018 AT TIME STEP      1, STRESS PERIOD    272
 UBDSV06 SAVING              RIV IN MODEL GWF_1            PACKAGE GWF_1           CONNECTED TO MODEL GWF_1            PACKAGE RIV_SYS2         ON UNIT   1018 AT TIME STEP      1, STRESS PERIOD    272
 UBDSV06 SAVING              RCH IN MODEL GWF_1            PACKAGE GWF_1           CONNECTED TO MODEL GWF_1            PACKAGE RCH_MSW          ON UNIT   1018 AT TIME STEP      1, STRESS PERIOD    272

 HEAD WILL BE SAVED ON UNIT 1017 AT END OF TIME STEP    1, STRESS PERIOD  272


  VOLUME BUDGET FOR ENTIRE MODEL AT END OF TIME STEP    1, STRESS PERIOD 272
  ---------------------------------------------------------------------------------------------------

     CUMULATIVE VOLUME      L**3       RATES FOR THIS TIME STEP      L**3/T          PACKAGE NAME    
     ------------------                 ------------------------                     ----------------

           IN:                                      IN:
           ---                                      ---
              STO-SS =      217186.6489                STO-SS =         164.0642     STORAGE                          
                 DRN =           0.0000                   DRN =           0.0000     DRN_SYS1                         
                 RIV =      225263.6695                   RIV =         728.4151     RIV_SYS1                         
                 RIV =           0.0000                   RIV =           0.0000     RIV_SYS2                         
                 RCH =      310155.4789                   RCH =        1623.9142     RCH_MSW                          

            TOTAL IN =      752605.7973              TOTAL IN =        2516.3935

          OUT:                                     OUT:
          ----                                     ----
              STO-SS =       30930.0288                STO-SS =         193.6198     STORAGE                          
                 DRN =       14035.5220                   DRN =          40.6352     DRN_SYS1                         
                 RIV =      661345.7308                   RIV =        2161.0407     RIV_SYS1                         
                 RIV =       39806.1326                   RIV =         121.0923     RIV_SYS2                         
                 RCH =        6488.4405                   RCH =           0.0000     RCH_MSW                          

           TOTAL OUT =      752605.8547             TOTAL OUT =        2516.3879

            IN - OUT =      -5.7367E-02              IN - OUT =       5.5310E-03

 PERCENT DISCREPANCY =          -0.00     PERCENT DISCREPANCY =           0.00




         TIME SUMMARY AT END OF TIME STEP    1 IN STRESS PERIOD  272
                    SECONDS     MINUTES      HOURS       DAYS        YEARS
                    -----------------------------------------------------------
   TIME STEP LENGTH  86400.      1440.0      24.000      1.0000     2.73785E-03
 STRESS PERIOD TIME  86400.      1440.0      24.000      1.0000     2.73785E-03
         TOTAL TIME 2.35008E+07 3.91680E+05  6528.0      272.00     0.74470    


end timestep


start timestep kper="273" kstp="1" mode="normal"

 #Stressperiod Save Options

 BEGIN READING OUTPUT CONTROL FOR STRESS PERIOD 273
      ALL TIME STEPS WILL BE SAVED
      ALL TIME STEPS WILL BE SAVED

 END READING OUTPUT CONTROL FOR STRESS PERIOD 273


 PROCESSING STORAGE PERIOD DATA
 END PROCESSING STORAGE PERIOD DATA


 STRESS PERIOD 273 IS TRANSIENT


 REUSING DRNS FROM LAST STRESS PERIOD

 REUSING RIVS FROM LAST STRESS PERIOD

 REUSING RIVS FROM LAST STRESS PERIOD

 REUSING RCHS FROM LAST STRESS PERIOD
 UBDSV06 SAVING              DRN IN MODEL GWF_1            PACKAGE GWF_1           CONNECTED TO MODEL GWF_1            PACKAGE DRN_SYS1         ON UNIT   1018 AT TIME STEP      1, STRESS PERIOD    273
 UBDSV06 SAVING              RIV IN MODEL GWF_1            PACKAGE GWF_1           CONNECTED TO MODEL GWF_1            PACKAGE RIV_SYS1         ON UNIT   1018 AT TIME STEP      1, STRESS PERIOD    273
 UBDSV06 SAVING              RIV IN MODEL GWF_1            PACKAGE GWF_1           CONNECTED TO MODEL GWF_1            PACKAGE RIV_SYS2         ON UNIT   1018 AT TIME STEP      1, STRESS PERIOD    273
 UBDSV06 SAVING              RCH IN MODEL GWF_1            PACKAGE GWF_1           CONNECTED TO MODEL GWF_1            PACKAGE RCH_MSW          ON UNIT   1018 AT TIME STEP      1, STRESS PERIOD    273

 HEAD WILL BE SAVED ON UNIT 1017 AT END OF TIME STEP    1, STRESS PERIOD  273


  VOLUME BUDGET FOR ENTIRE MODEL AT END OF TIME STEP    1, STRESS PERIOD 273
  ---------------------------------------------------------------------------------------------------

     CUMULATIVE VOLUME      L**3       RATES FOR THIS TIME STEP      L**3/T          PACKAGE NAME    
     ------------------                 ------------------------                     ----------------

           IN:                                      IN:
           ---                                      ---
              STO-SS =      217358.6119                STO-SS =         171.9629     STORAGE                          
                 DRN =           0.0000                   DRN =           0.0000     DRN_SYS1                         
                 RIV =      226008.3213                   RIV =         744.6518     RIV_SYS1                         
                 RIV =           0.0000                   RIV =           0.0000     RIV_SYS2                         
                 RCH =      311675.8709                   RCH =        1520.3921     RCH_MSW                          

            TOTAL IN =      755042.8041              TOTAL IN =        2437.0068

          OUT:                                     OUT:
          ----                                     ----
              STO-SS =       31075.6123                STO-SS =         145.5835     STORAGE                          
                 DRN =       14076.2842                   DRN =          40.7622     DRN_SYS1                         
                 RIV =      663475.3931                   RIV =        2129.6623     RIV_SYS1                         
                 RIV =       39927.1367                   RIV =         121.0041     RIV_SYS2                         
                 RCH =        6488.4405                   RCH =           0.0000     RCH_MSW                          

           TOTAL OUT =      755042.8667             TOTAL OUT =        2437.0120

            IN - OUT =      -6.2582E-02              IN - OUT =      -5.2150E-03

 PERCENT DISCREPANCY =          -0.00     PERCENT DISCREPANCY =          -0.00




         TIME SUMMARY AT END OF TIME STEP    1 IN STRESS PERIOD  273
                    SECONDS     MINUTES      HOURS       DAYS        YEARS
                    -----------------------------------------------------------
   TIME STEP LENGTH  86400.      1440.0      24.000      1.0000     2.73785E-03
 STRESS PERIOD TIME  86400.      1440.0      24.000      1.0000     2.73785E-03
         TOTAL TIME 2.35872E+07 3.93120E+05  6552.0      273.00     0.74743    


end timestep


start timestep kper="274" kstp="1" mode="normal"

 #Stressperiod Save Options

 BEGIN READING OUTPUT CONTROL FOR STRESS PERIOD 274
      ALL TIME STEPS WILL BE SAVED
      ALL TIME STEPS WILL BE SAVED

 END READING OUTPUT CONTROL FOR STRESS PERIOD 274


 PROCESSING STORAGE PERIOD DATA
 END PROCESSING STORAGE PERIOD DATA


 STRESS PERIOD 274 IS TRANSIENT


 REUSING DRNS FROM LAST STRESS PERIOD

 REUSING RIVS FROM LAST STRESS PERIOD

 REUSING RIVS FROM LAST STRESS PERIOD

 REUSING RCHS FROM LAST STRESS PERIOD
 UBDSV06 SAVING              DRN IN MODEL GWF_1            PACKAGE GWF_1           CONNECTED TO MODEL GWF_1            PACKAGE DRN_SYS1         ON UNIT   1018 AT TIME STEP      1, STRESS PERIOD    274
 UBDSV06 SAVING              RIV IN MODEL GWF_1            PACKAGE GWF_1           CONNECTED TO MODEL GWF_1            PACKAGE RIV_SYS1         ON UNIT   1018 AT TIME STEP      1, STRESS PERIOD    274
 UBDSV06 SAVING              RIV IN MODEL GWF_1            PACKAGE GWF_1           CONNECTED TO MODEL GWF_1            PACKAGE RIV_SYS2         ON UNIT   1018 AT TIME STEP      1, STRESS PERIOD    274
 UBDSV06 SAVING              RCH IN MODEL GWF_1            PACKAGE GWF_1           CONNECTED TO MODEL GWF_1            PACKAGE RCH_MSW          ON UNIT   1018 AT TIME STEP      1, STRESS PERIOD    274

 HEAD WILL BE SAVED ON UNIT 1017 AT END OF TIME STEP    1, STRESS PERIOD  274


  VOLUME BUDGET FOR ENTIRE MODEL AT END OF TIME STEP    1, STRESS PERIOD 274
  ---------------------------------------------------------------------------------------------------

     CUMULATIVE VOLUME      L**3       RATES FOR THIS TIME STEP      L**3/T          PACKAGE NAME    
     ------------------                 ------------------------                     ----------------

           IN:                                      IN:
           ---                                      ---
              STO-SS =      217532.0687                STO-SS =         173.4569     STORAGE                          
                 DRN =           0.0000                   DRN =           0.0000     DRN_SYS1                         
                 RIV =      226767.7447                   RIV =         759.4234     RIV_SYS1                         
                 RIV =           0.0000                   RIV =           0.0000     RIV_SYS2                         
                 RCH =      313115.3167                   RCH =        1439.4458     RCH_MSW                          

            TOTAL IN =      757415.1302              TOTAL IN =        2372.3261

          OUT:                                     OUT:
          ----                                     ----
              STO-SS =       31184.8844                STO-SS =         109.2721     STORAGE                          
                 DRN =       14117.0810                   DRN =          40.7968     DRN_SYS1                         
                 RIV =      665576.9518                   RIV =        2101.5587     RIV_SYS1                         
                 RIV =       40047.8446                   RIV =         120.7079     RIV_SYS2                         
                 RCH =        6488.4405                   RCH =           0.0000     RCH_MSW                          

           TOTAL OUT =      757415.2022             TOTAL OUT =        2372.3355

            IN - OUT =      -7.2026E-02              IN - OUT =      -9.4442E-03

 PERCENT DISCREPANCY =          -0.00     PERCENT DISCREPANCY =          -0.00




         TIME SUMMARY AT END OF TIME STEP    1 IN STRESS PERIOD  274
                    SECONDS     MINUTES      HOURS       DAYS        YEARS
                    -----------------------------------------------------------
   TIME STEP LENGTH  86400.      1440.0      24.000      1.0000     2.73785E-03
 STRESS PERIOD TIME  86400.      1440.0      24.000      1.0000     2.73785E-03
         TOTAL TIME 2.36736E+07 3.94560E+05  6576.0      274.00     0.75017    


end timestep


start timestep kper="275" kstp="1" mode="normal"

 #Stressperiod Save Options

 BEGIN READING OUTPUT CONTROL FOR STRESS PERIOD 275
      ALL TIME STEPS WILL BE SAVED
      ALL TIME STEPS WILL BE SAVED

 END READING OUTPUT CONTROL FOR STRESS PERIOD 275


 PROCESSING STORAGE PERIOD DATA
 END PROCESSING STORAGE PERIOD DATA


 STRESS PERIOD 275 IS TRANSIENT


 REUSING DRNS FROM LAST STRESS PERIOD

 REUSING RIVS FROM LAST STRESS PERIOD

 REUSING RIVS FROM LAST STRESS PERIOD

 REUSING RCHS FROM LAST STRESS PERIOD
 UBDSV06 SAVING              DRN IN MODEL GWF_1            PACKAGE GWF_1           CONNECTED TO MODEL GWF_1            PACKAGE DRN_SYS1         ON UNIT   1018 AT TIME STEP      1, STRESS PERIOD    275
 UBDSV06 SAVING              RIV IN MODEL GWF_1            PACKAGE GWF_1           CONNECTED TO MODEL GWF_1            PACKAGE RIV_SYS1         ON UNIT   1018 AT TIME STEP      1, STRESS PERIOD    275
 UBDSV06 SAVING              RIV IN MODEL GWF_1            PACKAGE GWF_1           CONNECTED TO MODEL GWF_1            PACKAGE RIV_SYS2         ON UNIT   1018 AT TIME STEP      1, STRESS PERIOD    275
 UBDSV06 SAVING              RCH IN MODEL GWF_1            PACKAGE GWF_1           CONNECTED TO MODEL GWF_1            PACKAGE RCH_MSW          ON UNIT   1018 AT TIME STEP      1, STRESS PERIOD    275

 HEAD WILL BE SAVED ON UNIT 1017 AT END OF TIME STEP    1, STRESS PERIOD  275


  VOLUME BUDGET FOR ENTIRE MODEL AT END OF TIME STEP    1, STRESS PERIOD 275
  ---------------------------------------------------------------------------------------------------

     CUMULATIVE VOLUME      L**3       RATES FOR THIS TIME STEP      L**3/T          PACKAGE NAME    
     ------------------                 ------------------------                     ----------------

           IN:                                      IN:
           ---                                      ---
              STO-SS =      217701.8396                STO-SS =         169.7708     STORAGE                          
                 DRN =           0.0000                   DRN =           0.0000     DRN_SYS1                         
                 RIV =      227540.4190                   RIV =         772.6743     RIV_SYS1                         
                 RIV =           0.0000                   RIV =           0.0000     RIV_SYS2                         
                 RCH =      314491.5704                   RCH =        1376.2537     RCH_MSW                          

            TOTAL IN =      759733.8290              TOTAL IN =        2318.6988

          OUT:                                     OUT:
          ----                                     ----
              STO-SS =       31265.3668                STO-SS =          80.4824     STORAGE                          
                 DRN =       14157.8412                   DRN =          40.7601     DRN_SYS1                         
                 RIV =      667654.1501                   RIV =        2077.1984     RIV_SYS1                         
                 RIV =       40168.1114                   RIV =         120.2668     RIV_SYS2                         
                 RCH =        6488.4405                   RCH =           0.0000     RCH_MSW                          

           TOTAL OUT =      759733.9099             TOTAL OUT =        2318.7077

            IN - OUT =      -8.0903E-02              IN - OUT =      -8.8769E-03

 PERCENT DISCREPANCY =          -0.00     PERCENT DISCREPANCY =          -0.00




         TIME SUMMARY AT END OF TIME STEP    1 IN STRESS PERIOD  275
                    SECONDS     MINUTES      HOURS       DAYS        YEARS
                    -----------------------------------------------------------
   TIME STEP LENGTH  86400.      1440.0      24.000      1.0000     2.73785E-03
 STRESS PERIOD TIME  86400.      1440.0      24.000      1.0000     2.73785E-03
         TOTAL TIME 2.37600E+07 3.96000E+05  6600.0      275.00     0.75291    


end timestep


start timestep kper="276" kstp="1" mode="normal"

 #Stressperiod Save Options

 BEGIN READING OUTPUT CONTROL FOR STRESS PERIOD 276
      ALL TIME STEPS WILL BE SAVED
      ALL TIME STEPS WILL BE SAVED

 END READING OUTPUT CONTROL FOR STRESS PERIOD 276


 PROCESSING STORAGE PERIOD DATA
 END PROCESSING STORAGE PERIOD DATA


 STRESS PERIOD 276 IS TRANSIENT


 REUSING DRNS FROM LAST STRESS PERIOD

 REUSING RIVS FROM LAST STRESS PERIOD

 REUSING RIVS FROM LAST STRESS PERIOD

 REUSING RCHS FROM LAST STRESS PERIOD
 UBDSV06 SAVING              DRN IN MODEL GWF_1            PACKAGE GWF_1           CONNECTED TO MODEL GWF_1            PACKAGE DRN_SYS1         ON UNIT   1018 AT TIME STEP      1, STRESS PERIOD    276
 UBDSV06 SAVING              RIV IN MODEL GWF_1            PACKAGE GWF_1           CONNECTED TO MODEL GWF_1            PACKAGE RIV_SYS1         ON UNIT   1018 AT TIME STEP      1, STRESS PERIOD    276
 UBDSV06 SAVING              RIV IN MODEL GWF_1            PACKAGE GWF_1           CONNECTED TO MODEL GWF_1            PACKAGE RIV_SYS2         ON UNIT   1018 AT TIME STEP      1, STRESS PERIOD    276
 UBDSV06 SAVING              RCH IN MODEL GWF_1            PACKAGE GWF_1           CONNECTED TO MODEL GWF_1            PACKAGE RCH_MSW          ON UNIT   1018 AT TIME STEP      1, STRESS PERIOD    276

 HEAD WILL BE SAVED ON UNIT 1017 AT END OF TIME STEP    1, STRESS PERIOD  276


  VOLUME BUDGET FOR ENTIRE MODEL AT END OF TIME STEP    1, STRESS PERIOD 276
  ---------------------------------------------------------------------------------------------------

     CUMULATIVE VOLUME      L**3       RATES FOR THIS TIME STEP      L**3/T          PACKAGE NAME    
     ------------------                 ------------------------                     ----------------

           IN:                                      IN:
           ---                                      ---
              STO-SS =      217706.7334                STO-SS =           4.8938     STORAGE                          
                 DRN =           0.0000                   DRN =           0.0000     DRN_SYS1                         
                 RIV =      228307.8715                   RIV =         767.4525     RIV_SYS1                         
                 RIV =           0.0000                   RIV =           0.0000     RIV_SYS2                         
                 RCH =      316152.3129                   RCH =        1660.7425     RCH_MSW                          

            TOTAL IN =      762166.9178              TOTAL IN =        2433.0888

          OUT:                                     OUT:
          ----                                     ----
              STO-SS =       31441.4290                STO-SS =         176.0622     STORAGE                          
                 DRN =       14198.8808                   DRN =          41.0397     DRN_SYS1                         
                 RIV =      669749.3621                   RIV =        2095.2120     RIV_SYS1                         
                 RIV =       40288.8779                   RIV =         120.7665     RIV_SYS2                         
                 RCH =        6488.4405                   RCH =           0.0000     RCH_MSW                          

           TOTAL OUT =      762166.9902             TOTAL OUT =        2433.0803

            IN - OUT =      -7.2395E-02              IN - OUT =       8.5078E-03

 PERCENT DISCREPANCY =          -0.00     PERCENT DISCREPANCY =           0.00




         TIME SUMMARY AT END OF TIME STEP    1 IN STRESS PERIOD  276
                    SECONDS     MINUTES      HOURS       DAYS        YEARS
                    -----------------------------------------------------------
   TIME STEP LENGTH  86400.      1440.0      24.000      1.0000     2.73785E-03
 STRESS PERIOD TIME  86400.      1440.0      24.000      1.0000     2.73785E-03
         TOTAL TIME 2.38464E+07 3.97440E+05  6624.0      276.00     0.75565    


end timestep


start timestep kper="277" kstp="1" mode="normal"

 #Stressperiod Save Options

 BEGIN READING OUTPUT CONTROL FOR STRESS PERIOD 277
      ALL TIME STEPS WILL BE SAVED
      ALL TIME STEPS WILL BE SAVED

 END READING OUTPUT CONTROL FOR STRESS PERIOD 277


 PROCESSING STORAGE PERIOD DATA
 END PROCESSING STORAGE PERIOD DATA


 STRESS PERIOD 277 IS TRANSIENT


 REUSING DRNS FROM LAST STRESS PERIOD

 REUSING RIVS FROM LAST STRESS PERIOD

 REUSING RIVS FROM LAST STRESS PERIOD

 REUSING RCHS FROM LAST STRESS PERIOD
 UBDSV06 SAVING              DRN IN MODEL GWF_1            PACKAGE GWF_1           CONNECTED TO MODEL GWF_1            PACKAGE DRN_SYS1         ON UNIT   1018 AT TIME STEP      1, STRESS PERIOD    277
 UBDSV06 SAVING              RIV IN MODEL GWF_1            PACKAGE GWF_1           CONNECTED TO MODEL GWF_1            PACKAGE RIV_SYS1         ON UNIT   1018 AT TIME STEP      1, STRESS PERIOD    277
 UBDSV06 SAVING              RIV IN MODEL GWF_1            PACKAGE GWF_1           CONNECTED TO MODEL GWF_1            PACKAGE RIV_SYS2         ON UNIT   1018 AT TIME STEP      1, STRESS PERIOD    277
 UBDSV06 SAVING              RCH IN MODEL GWF_1            PACKAGE GWF_1           CONNECTED TO MODEL GWF_1            PACKAGE RCH_MSW          ON UNIT   1018 AT TIME STEP      1, STRESS PERIOD    277

 HEAD WILL BE SAVED ON UNIT 1017 AT END OF TIME STEP    1, STRESS PERIOD  277


  VOLUME BUDGET FOR ENTIRE MODEL AT END OF TIME STEP    1, STRESS PERIOD 277
  ---------------------------------------------------------------------------------------------------

     CUMULATIVE VOLUME      L**3       RATES FOR THIS TIME STEP      L**3/T          PACKAGE NAME    
     ------------------                 ------------------------                     ----------------

           IN:                                      IN:
           ---                                      ---
              STO-SS =      217706.7334                STO-SS =           0.0000     STORAGE                          
                 DRN =           0.0000                   DRN =           0.0000     DRN_SYS1                         
                 RIV =      229043.4234                   RIV =         735.5519     RIV_SYS1                         
                 RIV =           0.0000                   RIV =           0.0000     RIV_SYS2                         
                 RCH =      318356.8059                   RCH =        2204.4930     RCH_MSW                          

            TOTAL IN =      765106.9627              TOTAL IN =        2940.0449

          OUT:                                     OUT:
          ----                                     ----
              STO-SS =       32042.4839                STO-SS =         601.0549     STORAGE                          
                 DRN =       14240.8513                   DRN =          41.9705     DRN_SYS1                         
                 RIV =      671923.2201                   RIV =        2173.8580     RIV_SYS1                         
                 RIV =       40412.0394                   RIV =         123.1615     RIV_SYS2                         
                 RCH =        6488.4405                   RCH =           0.0000     RCH_MSW                          

           TOTAL OUT =      765107.0352             TOTAL OUT =        2940.0450

            IN - OUT =      -7.2485E-02              IN - OUT =      -9.0317E-05

 PERCENT DISCREPANCY =          -0.00     PERCENT DISCREPANCY =          -0.00




         TIME SUMMARY AT END OF TIME STEP    1 IN STRESS PERIOD  277
                    SECONDS     MINUTES      HOURS       DAYS        YEARS
                    -----------------------------------------------------------
   TIME STEP LENGTH  86400.      1440.0      24.000      1.0000     2.73785E-03
 STRESS PERIOD TIME  86400.      1440.0      24.000      1.0000     2.73785E-03
         TOTAL TIME 2.39328E+07 3.98880E+05  6648.0      277.00     0.75838    


end timestep


start timestep kper="278" kstp="1" mode="normal"

 #Stressperiod Save Options

 BEGIN READING OUTPUT CONTROL FOR STRESS PERIOD 278
      ALL TIME STEPS WILL BE SAVED
      ALL TIME STEPS WILL BE SAVED

 END READING OUTPUT CONTROL FOR STRESS PERIOD 278


 PROCESSING STORAGE PERIOD DATA
 END PROCESSING STORAGE PERIOD DATA


 STRESS PERIOD 278 IS TRANSIENT


 REUSING DRNS FROM LAST STRESS PERIOD

 REUSING RIVS FROM LAST STRESS PERIOD

 REUSING RIVS FROM LAST STRESS PERIOD

 REUSING RCHS FROM LAST STRESS PERIOD
 UBDSV06 SAVING              DRN IN MODEL GWF_1            PACKAGE GWF_1           CONNECTED TO MODEL GWF_1            PACKAGE DRN_SYS1         ON UNIT   1018 AT TIME STEP      1, STRESS PERIOD    278
 UBDSV06 SAVING              RIV IN MODEL GWF_1            PACKAGE GWF_1           CONNECTED TO MODEL GWF_1            PACKAGE RIV_SYS1         ON UNIT   1018 AT TIME STEP      1, STRESS PERIOD    278
 UBDSV06 SAVING              RIV IN MODEL GWF_1            PACKAGE GWF_1           CONNECTED TO MODEL GWF_1            PACKAGE RIV_SYS2         ON UNIT   1018 AT TIME STEP      1, STRESS PERIOD    278
 UBDSV06 SAVING              RCH IN MODEL GWF_1            PACKAGE GWF_1           CONNECTED TO MODEL GWF_1            PACKAGE RCH_MSW          ON UNIT   1018 AT TIME STEP      1, STRESS PERIOD    278

 HEAD WILL BE SAVED ON UNIT 1017 AT END OF TIME STEP    1, STRESS PERIOD  278


  VOLUME BUDGET FOR ENTIRE MODEL AT END OF TIME STEP    1, STRESS PERIOD 278
  ---------------------------------------------------------------------------------------------------

     CUMULATIVE VOLUME      L**3       RATES FOR THIS TIME STEP      L**3/T          PACKAGE NAME    
     ------------------                 ------------------------                     ----------------

           IN:                                      IN:
           ---                                      ---
              STO-SS =      217706.7334                STO-SS =           0.0000     STORAGE                          
                 DRN =           0.0000                   DRN =           0.0000     DRN_SYS1                         
                 RIV =      229748.0466                   RIV =         704.6232     RIV_SYS1                         
                 RIV =           0.0000                   RIV =           0.0000     RIV_SYS2                         
                 RCH =      320783.3528                   RCH =        2426.5468     RCH_MSW                          

            TOTAL IN =      768238.1328              TOTAL IN =        3131.1701

          OUT:                                     OUT:
          ----                                     ----
              STO-SS =       32755.2249                STO-SS =         712.7410     STORAGE                          
                 DRN =       14284.0310                   DRN =          43.1797     DRN_SYS1                         
                 RIV =      674172.1154                   RIV =        2248.8953     RIV_SYS1                         
                 RIV =       40538.3945                   RIV =         126.3551     RIV_SYS2                         
                 RCH =        6488.4405                   RCH =           0.0000     RCH_MSW                          

           TOTAL OUT =      768238.2062             TOTAL OUT =        3131.1710

            IN - OUT =      -7.3395E-02              IN - OUT =      -9.1011E-04

 PERCENT DISCREPANCY =          -0.00     PERCENT DISCREPANCY =          -0.00




         TIME SUMMARY AT END OF TIME STEP    1 IN STRESS PERIOD  278
                    SECONDS     MINUTES      HOURS       DAYS        YEARS
                    -----------------------------------------------------------
   TIME STEP LENGTH  86400.      1440.0      24.000      1.0000     2.73785E-03
 STRESS PERIOD TIME  86400.      1440.0      24.000      1.0000     2.73785E-03
         TOTAL TIME 2.40192E+07 4.00320E+05  6672.0      278.00     0.76112    


end timestep


start timestep kper="279" kstp="1" mode="normal"

 #Stressperiod Save Options

 BEGIN READING OUTPUT CONTROL FOR STRESS PERIOD 279
      ALL TIME STEPS WILL BE SAVED
      ALL TIME STEPS WILL BE SAVED

 END READING OUTPUT CONTROL FOR STRESS PERIOD 279


 PROCESSING STORAGE PERIOD DATA
 END PROCESSING STORAGE PERIOD DATA


 STRESS PERIOD 279 IS TRANSIENT


 REUSING DRNS FROM LAST STRESS PERIOD

 REUSING RIVS FROM LAST STRESS PERIOD

 REUSING RIVS FROM LAST STRESS PERIOD

 REUSING RCHS FROM LAST STRESS PERIOD
 UBDSV06 SAVING              DRN IN MODEL GWF_1            PACKAGE GWF_1           CONNECTED TO MODEL GWF_1            PACKAGE DRN_SYS1         ON UNIT   1018 AT TIME STEP      1, STRESS PERIOD    279
 UBDSV06 SAVING              RIV IN MODEL GWF_1            PACKAGE GWF_1           CONNECTED TO MODEL GWF_1            PACKAGE RIV_SYS1         ON UNIT   1018 AT TIME STEP      1, STRESS PERIOD    279
 UBDSV06 SAVING              RIV IN MODEL GWF_1            PACKAGE GWF_1           CONNECTED TO MODEL GWF_1            PACKAGE RIV_SYS2         ON UNIT   1018 AT TIME STEP      1, STRESS PERIOD    279
 UBDSV06 SAVING              RCH IN MODEL GWF_1            PACKAGE GWF_1           CONNECTED TO MODEL GWF_1            PACKAGE RCH_MSW          ON UNIT   1018 AT TIME STEP      1, STRESS PERIOD    279

 HEAD WILL BE SAVED ON UNIT 1017 AT END OF TIME STEP    1, STRESS PERIOD  279


  VOLUME BUDGET FOR ENTIRE MODEL AT END OF TIME STEP    1, STRESS PERIOD 279
  ---------------------------------------------------------------------------------------------------

     CUMULATIVE VOLUME      L**3       RATES FOR THIS TIME STEP      L**3/T          PACKAGE NAME    
     ------------------                 ------------------------                     ----------------

           IN:                                      IN:
           ---                                      ---
              STO-SS =      217706.7334                STO-SS =           0.0000     STORAGE                          
                 DRN =           0.0000                   DRN =           0.0000     DRN_SYS1                         
                 RIV =      230433.1983                   RIV =         685.1517     RIV_SYS1                         
                 RIV =           0.0000                   RIV =           0.0000     RIV_SYS2                         
                 RCH =      323222.2268                   RCH =        2438.8740     RCH_MSW                          

            TOTAL IN =      771362.1584              TOTAL IN =        3124.0256

          OUT:                                     OUT:
          ----                                     ----
              STO-SS =       33408.0224                STO-SS =         652.7975     STORAGE                          
                 DRN =       14328.4091                   DRN =          44.3781     DRN_SYS1                         
                 RIV =      676469.4716                   RIV =        2297.3562     RIV_SYS1                         
                 RIV =       40667.8882                   RIV =         129.4936     RIV_SYS2                         
                 RCH =        6488.4405                   RCH =           0.0000     RCH_MSW                          

           TOTAL OUT =      771362.2317             TOTAL OUT =        3124.0255

            IN - OUT =      -7.3240E-02              IN - OUT =       1.5527E-04

 PERCENT DISCREPANCY =          -0.00     PERCENT DISCREPANCY =           0.00




         TIME SUMMARY AT END OF TIME STEP    1 IN STRESS PERIOD  279
                    SECONDS     MINUTES      HOURS       DAYS        YEARS
                    -----------------------------------------------------------
   TIME STEP LENGTH  86400.      1440.0      24.000      1.0000     2.73785E-03
 STRESS PERIOD TIME  86400.      1440.0      24.000      1.0000     2.73785E-03
         TOTAL TIME 2.41056E+07 4.01760E+05  6696.0      279.00     0.76386    


end timestep


start timestep kper="280" kstp="1" mode="normal"

 #Stressperiod Save Options

 BEGIN READING OUTPUT CONTROL FOR STRESS PERIOD 280
      ALL TIME STEPS WILL BE SAVED
      ALL TIME STEPS WILL BE SAVED

 END READING OUTPUT CONTROL FOR STRESS PERIOD 280


 PROCESSING STORAGE PERIOD DATA
 END PROCESSING STORAGE PERIOD DATA


 STRESS PERIOD 280 IS TRANSIENT


 REUSING DRNS FROM LAST STRESS PERIOD

 REUSING RIVS FROM LAST STRESS PERIOD

 REUSING RIVS FROM LAST STRESS PERIOD

 REUSING RCHS FROM LAST STRESS PERIOD
 UBDSV06 SAVING              DRN IN MODEL GWF_1            PACKAGE GWF_1           CONNECTED TO MODEL GWF_1            PACKAGE DRN_SYS1         ON UNIT   1018 AT TIME STEP      1, STRESS PERIOD    280
 UBDSV06 SAVING              RIV IN MODEL GWF_1            PACKAGE GWF_1           CONNECTED TO MODEL GWF_1            PACKAGE RIV_SYS1         ON UNIT   1018 AT TIME STEP      1, STRESS PERIOD    280
 UBDSV06 SAVING              RIV IN MODEL GWF_1            PACKAGE GWF_1           CONNECTED TO MODEL GWF_1            PACKAGE RIV_SYS2         ON UNIT   1018 AT TIME STEP      1, STRESS PERIOD    280
 UBDSV06 SAVING              RCH IN MODEL GWF_1            PACKAGE GWF_1           CONNECTED TO MODEL GWF_1            PACKAGE RCH_MSW          ON UNIT   1018 AT TIME STEP      1, STRESS PERIOD    280

 HEAD WILL BE SAVED ON UNIT 1017 AT END OF TIME STEP    1, STRESS PERIOD  280


  VOLUME BUDGET FOR ENTIRE MODEL AT END OF TIME STEP    1, STRESS PERIOD 280
  ---------------------------------------------------------------------------------------------------

     CUMULATIVE VOLUME      L**3       RATES FOR THIS TIME STEP      L**3/T          PACKAGE NAME    
     ------------------                 ------------------------                     ----------------

           IN:                                      IN:
           ---                                      ---
              STO-SS =      217706.8707                STO-SS =           0.1373     STORAGE                          
                 DRN =           0.0000                   DRN =           0.0000     DRN_SYS1                         
                 RIV =      231109.9872                   RIV =         676.7889     RIV_SYS1                         
                 RIV =           0.0000                   RIV =           0.0000     RIV_SYS2                         
                 RCH =      325573.8679                   RCH =        2351.6411     RCH_MSW                          

            TOTAL IN =      774390.7258              TOTAL IN =        3028.5673

          OUT:                                     OUT:
          ----                                     ----
              STO-SS =       33938.1513                STO-SS =         530.1289     STORAGE                          
                 DRN =       14373.8365                   DRN =          45.4274     DRN_SYS1                         
                 RIV =      678790.2967                   RIV =        2320.8252     RIV_SYS1                         
                 RIV =       40800.0706                   RIV =         132.1824     RIV_SYS2                         
                 RCH =        6488.4405                   RCH =           0.0000     RCH_MSW                          

           TOTAL OUT =      774390.7956             TOTAL OUT =        3028.5639

            IN - OUT =      -6.9825E-02              IN - OUT =       3.4149E-03

 PERCENT DISCREPANCY =          -0.00     PERCENT DISCREPANCY =           0.00




         TIME SUMMARY AT END OF TIME STEP    1 IN STRESS PERIOD  280
                    SECONDS     MINUTES      HOURS       DAYS        YEARS
                    -----------------------------------------------------------
   TIME STEP LENGTH  86400.      1440.0      24.000      1.0000     2.73785E-03
 STRESS PERIOD TIME  86400.      1440.0      24.000      1.0000     2.73785E-03
         TOTAL TIME 2.41920E+07 4.03200E+05  6720.0      280.00     0.76660    


end timestep


start timestep kper="281" kstp="1" mode="normal"

 #Stressperiod Save Options

 BEGIN READING OUTPUT CONTROL FOR STRESS PERIOD 281
      ALL TIME STEPS WILL BE SAVED
      ALL TIME STEPS WILL BE SAVED

 END READING OUTPUT CONTROL FOR STRESS PERIOD 281


 PROCESSING STORAGE PERIOD DATA
 END PROCESSING STORAGE PERIOD DATA


 STRESS PERIOD 281 IS TRANSIENT


 REUSING DRNS FROM LAST STRESS PERIOD

 REUSING RIVS FROM LAST STRESS PERIOD

 REUSING RIVS FROM LAST STRESS PERIOD

 REUSING RCHS FROM LAST STRESS PERIOD
 UBDSV06 SAVING              DRN IN MODEL GWF_1            PACKAGE GWF_1           CONNECTED TO MODEL GWF_1            PACKAGE DRN_SYS1         ON UNIT   1018 AT TIME STEP      1, STRESS PERIOD    281
 UBDSV06 SAVING              RIV IN MODEL GWF_1            PACKAGE GWF_1           CONNECTED TO MODEL GWF_1            PACKAGE RIV_SYS1         ON UNIT   1018 AT TIME STEP      1, STRESS PERIOD    281
 UBDSV06 SAVING              RIV IN MODEL GWF_1            PACKAGE GWF_1           CONNECTED TO MODEL GWF_1            PACKAGE RIV_SYS2         ON UNIT   1018 AT TIME STEP      1, STRESS PERIOD    281
 UBDSV06 SAVING              RCH IN MODEL GWF_1            PACKAGE GWF_1           CONNECTED TO MODEL GWF_1            PACKAGE RCH_MSW          ON UNIT   1018 AT TIME STEP      1, STRESS PERIOD    281

 HEAD WILL BE SAVED ON UNIT 1017 AT END OF TIME STEP    1, STRESS PERIOD  281


  VOLUME BUDGET FOR ENTIRE MODEL AT END OF TIME STEP    1, STRESS PERIOD 281
  ---------------------------------------------------------------------------------------------------

     CUMULATIVE VOLUME      L**3       RATES FOR THIS TIME STEP      L**3/T          PACKAGE NAME    
     ------------------                 ------------------------                     ----------------

           IN:                                      IN:
           ---                                      ---
              STO-SS =      217710.0276                STO-SS =           3.1569     STORAGE                          
                 DRN =           0.0000                   DRN =           0.0000     DRN_SYS1                         
                 RIV =      231784.6382                   RIV =         674.6510     RIV_SYS1                         
                 RIV =           0.0000                   RIV =           0.0000     RIV_SYS2                         
                 RCH =      327815.1183                   RCH =        2241.2504     RCH_MSW                          

            TOTAL IN =      777309.7841              TOTAL IN =        2919.0584

          OUT:                                     OUT:
          ----                                     ----
              STO-SS =       34348.5994                STO-SS =         410.4481     STORAGE                          
                 DRN =       14420.1199                   DRN =          46.2834     DRN_SYS1                         
                 RIV =      681118.3072                   RIV =        2328.0104     RIV_SYS1                         
                 RIV =       40934.3805                   RIV =         134.3099     RIV_SYS2                         
                 RCH =        6488.4405                   RCH =           0.0000     RCH_MSW                          

           TOTAL OUT =      777309.8475             TOTAL OUT =        2919.0519

            IN - OUT =      -6.3327E-02              IN - OUT =       6.4977E-03

 PERCENT DISCREPANCY =          -0.00     PERCENT DISCREPANCY =           0.00




         TIME SUMMARY AT END OF TIME STEP    1 IN STRESS PERIOD  281
                    SECONDS     MINUTES      HOURS       DAYS        YEARS
                    -----------------------------------------------------------
   TIME STEP LENGTH  86400.      1440.0      24.000      1.0000     2.73785E-03
 STRESS PERIOD TIME  86400.      1440.0      24.000      1.0000     2.73785E-03
         TOTAL TIME 2.42784E+07 4.04640E+05  6744.0      281.00     0.76934    


end timestep


start timestep kper="282" kstp="1" mode="normal"

 #Stressperiod Save Options

 BEGIN READING OUTPUT CONTROL FOR STRESS PERIOD 282
      ALL TIME STEPS WILL BE SAVED
      ALL TIME STEPS WILL BE SAVED

 END READING OUTPUT CONTROL FOR STRESS PERIOD 282


 PROCESSING STORAGE PERIOD DATA
 END PROCESSING STORAGE PERIOD DATA


 STRESS PERIOD 282 IS TRANSIENT


 REUSING DRNS FROM LAST STRESS PERIOD

 REUSING RIVS FROM LAST STRESS PERIOD

 REUSING RIVS FROM LAST STRESS PERIOD

 REUSING RCHS FROM LAST STRESS PERIOD
 UBDSV06 SAVING              DRN IN MODEL GWF_1            PACKAGE GWF_1           CONNECTED TO MODEL GWF_1            PACKAGE DRN_SYS1         ON UNIT   1018 AT TIME STEP      1, STRESS PERIOD    282
 UBDSV06 SAVING              RIV IN MODEL GWF_1            PACKAGE GWF_1           CONNECTED TO MODEL GWF_1            PACKAGE RIV_SYS1         ON UNIT   1018 AT TIME STEP      1, STRESS PERIOD    282
 UBDSV06 SAVING              RIV IN MODEL GWF_1            PACKAGE GWF_1           CONNECTED TO MODEL GWF_1            PACKAGE RIV_SYS2         ON UNIT   1018 AT TIME STEP      1, STRESS PERIOD    282
 UBDSV06 SAVING              RCH IN MODEL GWF_1            PACKAGE GWF_1           CONNECTED TO MODEL GWF_1            PACKAGE RCH_MSW          ON UNIT   1018 AT TIME STEP      1, STRESS PERIOD    282

 HEAD WILL BE SAVED ON UNIT 1017 AT END OF TIME STEP    1, STRESS PERIOD  282


  VOLUME BUDGET FOR ENTIRE MODEL AT END OF TIME STEP    1, STRESS PERIOD 282
  ---------------------------------------------------------------------------------------------------

     CUMULATIVE VOLUME      L**3       RATES FOR THIS TIME STEP      L**3/T          PACKAGE NAME    
     ------------------                 ------------------------                     ----------------

           IN:                                      IN:
           ---                                      ---
              STO-SS =      217724.6885                STO-SS =          14.6609     STORAGE                          
                 DRN =           0.0000                   DRN =           0.0000     DRN_SYS1                         
                 RIV =      232462.1304                   RIV =         677.4922     RIV_SYS1                         
                 RIV =           0.0000                   RIV =           0.0000     RIV_SYS2                         
                 RCH =      329925.4823                   RCH =        2110.3640     RCH_MSW                          

            TOTAL IN =      780112.3012              TOTAL IN =        2802.5171

          OUT:                                     OUT:
          ----                                     ----
              STO-SS =       34645.8683                STO-SS =         297.2688     STORAGE                          
                 DRN =       14467.0464                   DRN =          46.9265     DRN_SYS1                         
                 RIV =      683440.7858                   RIV =        2322.4786     RIV_SYS1                         
                 RIV =       41070.2153                   RIV =         135.8348     RIV_SYS2                         
                 RCH =        6488.4405                   RCH =           0.0000     RCH_MSW                          

           TOTAL OUT =      780112.3562             TOTAL OUT =        2802.5087

            IN - OUT =      -5.5001E-02              IN - OUT =       8.3263E-03

 PERCENT DISCREPANCY =          -0.00     PERCENT DISCREPANCY =           0.00




         TIME SUMMARY AT END OF TIME STEP    1 IN STRESS PERIOD  282
                    SECONDS     MINUTES      HOURS       DAYS        YEARS
                    -----------------------------------------------------------
   TIME STEP LENGTH  86400.      1440.0      24.000      1.0000     2.73785E-03
 STRESS PERIOD TIME  86400.      1440.0      24.000      1.0000     2.73785E-03
         TOTAL TIME 2.43648E+07 4.06080E+05  6768.0      282.00     0.77207    


end timestep


start timestep kper="283" kstp="1" mode="normal"

 #Stressperiod Save Options

 BEGIN READING OUTPUT CONTROL FOR STRESS PERIOD 283
      ALL TIME STEPS WILL BE SAVED
      ALL TIME STEPS WILL BE SAVED

 END READING OUTPUT CONTROL FOR STRESS PERIOD 283


 PROCESSING STORAGE PERIOD DATA
 END PROCESSING STORAGE PERIOD DATA


 STRESS PERIOD 283 IS TRANSIENT


 REUSING DRNS FROM LAST STRESS PERIOD

 REUSING RIVS FROM LAST STRESS PERIOD

 REUSING RIVS FROM LAST STRESS PERIOD

 REUSING RCHS FROM LAST STRESS PERIOD
 UBDSV06 SAVING              DRN IN MODEL GWF_1            PACKAGE GWF_1           CONNECTED TO MODEL GWF_1            PACKAGE DRN_SYS1         ON UNIT   1018 AT TIME STEP      1, STRESS PERIOD    283
 UBDSV06 SAVING              RIV IN MODEL GWF_1            PACKAGE GWF_1           CONNECTED TO MODEL GWF_1            PACKAGE RIV_SYS1         ON UNIT   1018 AT TIME STEP      1, STRESS PERIOD    283
 UBDSV06 SAVING              RIV IN MODEL GWF_1            PACKAGE GWF_1           CONNECTED TO MODEL GWF_1            PACKAGE RIV_SYS2         ON UNIT   1018 AT TIME STEP      1, STRESS PERIOD    283
 UBDSV06 SAVING              RCH IN MODEL GWF_1            PACKAGE GWF_1           CONNECTED TO MODEL GWF_1            PACKAGE RCH_MSW          ON UNIT   1018 AT TIME STEP      1, STRESS PERIOD    283

 HEAD WILL BE SAVED ON UNIT 1017 AT END OF TIME STEP    1, STRESS PERIOD  283


  VOLUME BUDGET FOR ENTIRE MODEL AT END OF TIME STEP    1, STRESS PERIOD 283
  ---------------------------------------------------------------------------------------------------

     CUMULATIVE VOLUME      L**3       RATES FOR THIS TIME STEP      L**3/T          PACKAGE NAME    
     ------------------                 ------------------------                     ----------------

           IN:                                      IN:
           ---                                      ---
              STO-SS =      217759.8640                STO-SS =          35.1756     STORAGE                          
                 DRN =           0.0000                   DRN =           0.0000     DRN_SYS1                         
                 RIV =      233145.9784                   RIV =         683.8480     RIV_SYS1                         
                 RIV =           0.0000                   RIV =           0.0000     RIV_SYS2                         
                 RCH =      331902.3157                   RCH =        1976.8334     RCH_MSW                          

            TOTAL IN =      782808.1582              TOTAL IN =        2695.8570

          OUT:                                     OUT:
          ----                                     ----
              STO-SS =       34849.1934                STO-SS =         203.3252     STORAGE                          
                 DRN =       14514.4121                   DRN =          47.3657     DRN_SYS1                         
                 RIV =      685749.1380                   RIV =        2308.3522     RIV_SYS1                         
                 RIV =       41207.0179                   RIV =         136.8026     RIV_SYS2                         
                 RCH =        6488.4405                   RCH =           0.0000     RCH_MSW                          

           TOTAL OUT =      782808.2019             TOTAL OUT =        2695.8457

            IN - OUT =      -4.3714E-02              IN - OUT =       1.1287E-02

 PERCENT DISCREPANCY =          -0.00     PERCENT DISCREPANCY =           0.00




         TIME SUMMARY AT END OF TIME STEP    1 IN STRESS PERIOD  283
                    SECONDS     MINUTES      HOURS       DAYS        YEARS
                    -----------------------------------------------------------
   TIME STEP LENGTH  86400.      1440.0      24.000      1.0000     2.73785E-03
 STRESS PERIOD TIME  86400.      1440.0      24.000      1.0000     2.73785E-03
         TOTAL TIME 2.44512E+07 4.07520E+05  6792.0      283.00     0.77481    


end timestep


start timestep kper="284" kstp="1" mode="normal"

 #Stressperiod Save Options

 BEGIN READING OUTPUT CONTROL FOR STRESS PERIOD 284
      ALL TIME STEPS WILL BE SAVED
      ALL TIME STEPS WILL BE SAVED

 END READING OUTPUT CONTROL FOR STRESS PERIOD 284


 PROCESSING STORAGE PERIOD DATA
 END PROCESSING STORAGE PERIOD DATA


 STRESS PERIOD 284 IS TRANSIENT


 REUSING DRNS FROM LAST STRESS PERIOD

 REUSING RIVS FROM LAST STRESS PERIOD

 REUSING RIVS FROM LAST STRESS PERIOD

 REUSING RCHS FROM LAST STRESS PERIOD
 UBDSV06 SAVING              DRN IN MODEL GWF_1            PACKAGE GWF_1           CONNECTED TO MODEL GWF_1            PACKAGE DRN_SYS1         ON UNIT   1018 AT TIME STEP      1, STRESS PERIOD    284
 UBDSV06 SAVING              RIV IN MODEL GWF_1            PACKAGE GWF_1           CONNECTED TO MODEL GWF_1            PACKAGE RIV_SYS1         ON UNIT   1018 AT TIME STEP      1, STRESS PERIOD    284
 UBDSV06 SAVING              RIV IN MODEL GWF_1            PACKAGE GWF_1           CONNECTED TO MODEL GWF_1            PACKAGE RIV_SYS2         ON UNIT   1018 AT TIME STEP      1, STRESS PERIOD    284
 UBDSV06 SAVING              RCH IN MODEL GWF_1            PACKAGE GWF_1           CONNECTED TO MODEL GWF_1            PACKAGE RCH_MSW          ON UNIT   1018 AT TIME STEP      1, STRESS PERIOD    284

 HEAD WILL BE SAVED ON UNIT 1017 AT END OF TIME STEP    1, STRESS PERIOD  284


  VOLUME BUDGET FOR ENTIRE MODEL AT END OF TIME STEP    1, STRESS PERIOD 284
  ---------------------------------------------------------------------------------------------------

     CUMULATIVE VOLUME      L**3       RATES FOR THIS TIME STEP      L**3/T          PACKAGE NAME    
     ------------------                 ------------------------                     ----------------

           IN:                                      IN:
           ---                                      ---
              STO-SS =      217819.4495                STO-SS =          59.5855     STORAGE                          
                 DRN =           0.0000                   DRN =           0.0000     DRN_SYS1                         
                 RIV =      233838.5735                   RIV =         692.5951     RIV_SYS1                         
                 RIV =           0.0000                   RIV =           0.0000     RIV_SYS2                         
                 RCH =      333758.6585                   RCH =        1856.3428     RCH_MSW                          

            TOTAL IN =      785416.6816              TOTAL IN =        2608.5234

          OUT:                                     OUT:
          ----                                     ----
              STO-SS =       34982.8697                STO-SS =         133.6763     STORAGE                          
                 DRN =       14562.0374                   DRN =          47.6253     DRN_SYS1                         
                 RIV =      688039.0680                   RIV =        2289.9300     RIV_SYS1                         
                 RIV =       41344.2977                   RIV =         137.2797     RIV_SYS2                         
                 RCH =        6488.4405                   RCH =           0.0000     RCH_MSW                          

           TOTAL OUT =      785416.7133             TOTAL OUT =        2608.5114

            IN - OUT =      -3.1726E-02              IN - OUT =       1.1988E-02

 PERCENT DISCREPANCY =          -0.00     PERCENT DISCREPANCY =           0.00




         TIME SUMMARY AT END OF TIME STEP    1 IN STRESS PERIOD  284
                    SECONDS     MINUTES      HOURS       DAYS        YEARS
                    -----------------------------------------------------------
   TIME STEP LENGTH  86400.      1440.0      24.000      1.0000     2.73785E-03
 STRESS PERIOD TIME  86400.      1440.0      24.000      1.0000     2.73785E-03
         TOTAL TIME 2.45376E+07 4.08960E+05  6816.0      284.00     0.77755    


end timestep


start timestep kper="285" kstp="1" mode="normal"

 #Stressperiod Save Options

 BEGIN READING OUTPUT CONTROL FOR STRESS PERIOD 285
      ALL TIME STEPS WILL BE SAVED
      ALL TIME STEPS WILL BE SAVED

 END READING OUTPUT CONTROL FOR STRESS PERIOD 285


 PROCESSING STORAGE PERIOD DATA
 END PROCESSING STORAGE PERIOD DATA


 STRESS PERIOD 285 IS TRANSIENT


 REUSING DRNS FROM LAST STRESS PERIOD

 REUSING RIVS FROM LAST STRESS PERIOD

 REUSING RIVS FROM LAST STRESS PERIOD

 REUSING RCHS FROM LAST STRESS PERIOD
 UBDSV06 SAVING              DRN IN MODEL GWF_1            PACKAGE GWF_1           CONNECTED TO MODEL GWF_1            PACKAGE DRN_SYS1         ON UNIT   1018 AT TIME STEP      1, STRESS PERIOD    285
 UBDSV06 SAVING              RIV IN MODEL GWF_1            PACKAGE GWF_1           CONNECTED TO MODEL GWF_1            PACKAGE RIV_SYS1         ON UNIT   1018 AT TIME STEP      1, STRESS PERIOD    285
 UBDSV06 SAVING              RIV IN MODEL GWF_1            PACKAGE GWF_1           CONNECTED TO MODEL GWF_1            PACKAGE RIV_SYS2         ON UNIT   1018 AT TIME STEP      1, STRESS PERIOD    285
 UBDSV06 SAVING              RCH IN MODEL GWF_1            PACKAGE GWF_1           CONNECTED TO MODEL GWF_1            PACKAGE RCH_MSW          ON UNIT   1018 AT TIME STEP      1, STRESS PERIOD    285

 HEAD WILL BE SAVED ON UNIT 1017 AT END OF TIME STEP    1, STRESS PERIOD  285


  VOLUME BUDGET FOR ENTIRE MODEL AT END OF TIME STEP    1, STRESS PERIOD 285
  ---------------------------------------------------------------------------------------------------

     CUMULATIVE VOLUME      L**3       RATES FOR THIS TIME STEP      L**3/T          PACKAGE NAME    
     ------------------                 ------------------------                     ----------------

           IN:                                      IN:
           ---                                      ---
              STO-SS =      217912.6804                STO-SS =          93.2308     STORAGE                          
                 DRN =           0.0000                   DRN =           0.0000     DRN_SYS1                         
                 RIV =      234541.8012                   RIV =         703.2277     RIV_SYS1                         
                 RIV =           0.0000                   RIV =           0.0000     RIV_SYS2                         
                 RCH =      335499.3889                   RCH =        1740.7304     RCH_MSW                          

            TOTAL IN =      787953.8704              TOTAL IN =        2537.1889

          OUT:                                     OUT:
          ----                                     ----
              STO-SS =       35066.4747                STO-SS =          83.6049     STORAGE                          
                 DRN =       14609.7615                   DRN =          47.7241     DRN_SYS1                         
                 RIV =      690307.5995                   RIV =        2268.5314     RIV_SYS1                         
                 RIV =       41481.6245                   RIV =         137.3269     RIV_SYS2                         
                 RCH =        6488.4405                   RCH =           0.0000     RCH_MSW                          

           TOTAL OUT =      787953.9006             TOTAL OUT =        2537.1873

            IN - OUT =      -3.0174E-02              IN - OUT =       1.5523E-03

 PERCENT DISCREPANCY =          -0.00     PERCENT DISCREPANCY =           0.00




         TIME SUMMARY AT END OF TIME STEP    1 IN STRESS PERIOD  285
                    SECONDS     MINUTES      HOURS       DAYS        YEARS
                    -----------------------------------------------------------
   TIME STEP LENGTH  86400.      1440.0      24.000      1.0000     2.73785E-03
 STRESS PERIOD TIME  86400.      1440.0      24.000      1.0000     2.73785E-03
         TOTAL TIME 2.46240E+07 4.10400E+05  6840.0      285.00     0.78029    


end timestep


start timestep kper="286" kstp="1" mode="normal"

 #Stressperiod Save Options

 BEGIN READING OUTPUT CONTROL FOR STRESS PERIOD 286
      ALL TIME STEPS WILL BE SAVED
      ALL TIME STEPS WILL BE SAVED

 END READING OUTPUT CONTROL FOR STRESS PERIOD 286


 PROCESSING STORAGE PERIOD DATA
 END PROCESSING STORAGE PERIOD DATA


 STRESS PERIOD 286 IS TRANSIENT


 REUSING DRNS FROM LAST STRESS PERIOD

 REUSING RIVS FROM LAST STRESS PERIOD

 REUSING RIVS FROM LAST STRESS PERIOD

 REUSING RCHS FROM LAST STRESS PERIOD
 UBDSV06 SAVING              DRN IN MODEL GWF_1            PACKAGE GWF_1           CONNECTED TO MODEL GWF_1            PACKAGE DRN_SYS1         ON UNIT   1018 AT TIME STEP      1, STRESS PERIOD    286
 UBDSV06 SAVING              RIV IN MODEL GWF_1            PACKAGE GWF_1           CONNECTED TO MODEL GWF_1            PACKAGE RIV_SYS1         ON UNIT   1018 AT TIME STEP      1, STRESS PERIOD    286
 UBDSV06 SAVING              RIV IN MODEL GWF_1            PACKAGE GWF_1           CONNECTED TO MODEL GWF_1            PACKAGE RIV_SYS2         ON UNIT   1018 AT TIME STEP      1, STRESS PERIOD    286
 UBDSV06 SAVING              RCH IN MODEL GWF_1            PACKAGE GWF_1           CONNECTED TO MODEL GWF_1            PACKAGE RCH_MSW          ON UNIT   1018 AT TIME STEP      1, STRESS PERIOD    286

 HEAD WILL BE SAVED ON UNIT 1017 AT END OF TIME STEP    1, STRESS PERIOD  286


  VOLUME BUDGET FOR ENTIRE MODEL AT END OF TIME STEP    1, STRESS PERIOD 286
  ---------------------------------------------------------------------------------------------------

     CUMULATIVE VOLUME      L**3       RATES FOR THIS TIME STEP      L**3/T          PACKAGE NAME    
     ------------------                 ------------------------                     ----------------

           IN:                                      IN:
           ---                                      ---
              STO-SS =      218042.8056                STO-SS =         130.1252     STORAGE                          
                 DRN =           0.0000                   DRN =           0.0000     DRN_SYS1                         
                 RIV =      235256.6543                   RIV =         714.8531     RIV_SYS1                         
                 RIV =           0.0000                   RIV =           0.0000     RIV_SYS2                         
                 RCH =      337132.9758                   RCH =        1633.5870     RCH_MSW                          

            TOTAL IN =      790432.4357              TOTAL IN =        2478.5653

          OUT:                                     OUT:
          ----                                     ----
              STO-SS =       35115.0559                STO-SS =          48.5812     STORAGE                          
                 DRN =       14657.4451                   DRN =          47.6835     DRN_SYS1                         
                 RIV =      692552.8971                   RIV =        2245.2976     RIV_SYS1                         
                 RIV =       41618.6344                   RIV =         137.0099     RIV_SYS2                         
                 RCH =        6488.4405                   RCH =           0.0000     RCH_MSW                          

           TOTAL OUT =      790432.4729             TOTAL OUT =        2478.5723

            IN - OUT =      -3.7134E-02              IN - OUT =      -6.9601E-03

 PERCENT DISCREPANCY =          -0.00     PERCENT DISCREPANCY =          -0.00




         TIME SUMMARY AT END OF TIME STEP    1 IN STRESS PERIOD  286
                    SECONDS     MINUTES      HOURS       DAYS        YEARS
                    -----------------------------------------------------------
   TIME STEP LENGTH  86400.      1440.0      24.000      1.0000     2.73785E-03
 STRESS PERIOD TIME  86400.      1440.0      24.000      1.0000     2.73785E-03
         TOTAL TIME 2.47104E+07 4.11840E+05  6864.0      286.00     0.78303    


end timestep


start timestep kper="287" kstp="1" mode="normal"

 #Stressperiod Save Options

 BEGIN READING OUTPUT CONTROL FOR STRESS PERIOD 287
      ALL TIME STEPS WILL BE SAVED
      ALL TIME STEPS WILL BE SAVED

 END READING OUTPUT CONTROL FOR STRESS PERIOD 287


 PROCESSING STORAGE PERIOD DATA
 END PROCESSING STORAGE PERIOD DATA


 STRESS PERIOD 287 IS TRANSIENT


 REUSING DRNS FROM LAST STRESS PERIOD

 REUSING RIVS FROM LAST STRESS PERIOD

 REUSING RIVS FROM LAST STRESS PERIOD

 REUSING RCHS FROM LAST STRESS PERIOD
 UBDSV06 SAVING              DRN IN MODEL GWF_1            PACKAGE GWF_1           CONNECTED TO MODEL GWF_1            PACKAGE DRN_SYS1         ON UNIT   1018 AT TIME STEP      1, STRESS PERIOD    287
 UBDSV06 SAVING              RIV IN MODEL GWF_1            PACKAGE GWF_1           CONNECTED TO MODEL GWF_1            PACKAGE RIV_SYS1         ON UNIT   1018 AT TIME STEP      1, STRESS PERIOD    287
 UBDSV06 SAVING              RIV IN MODEL GWF_1            PACKAGE GWF_1           CONNECTED TO MODEL GWF_1            PACKAGE RIV_SYS2         ON UNIT   1018 AT TIME STEP      1, STRESS PERIOD    287
 UBDSV06 SAVING              RCH IN MODEL GWF_1            PACKAGE GWF_1           CONNECTED TO MODEL GWF_1            PACKAGE RCH_MSW          ON UNIT   1018 AT TIME STEP      1, STRESS PERIOD    287

 HEAD WILL BE SAVED ON UNIT 1017 AT END OF TIME STEP    1, STRESS PERIOD  287


  VOLUME BUDGET FOR ENTIRE MODEL AT END OF TIME STEP    1, STRESS PERIOD 287
  ---------------------------------------------------------------------------------------------------

     CUMULATIVE VOLUME      L**3       RATES FOR THIS TIME STEP      L**3/T          PACKAGE NAME    
     ------------------                 ------------------------                     ----------------

           IN:                                      IN:
           ---                                      ---
              STO-SS =      218208.0213                STO-SS =         165.2158     STORAGE                          
                 DRN =           0.0000                   DRN =           0.0000     DRN_SYS1                         
                 RIV =      235983.5138                   RIV =         726.8595     RIV_SYS1                         
                 RIV =           0.0000                   RIV =           0.0000     RIV_SYS2                         
                 RCH =      338671.0070                   RCH =        1538.0311     RCH_MSW                          

            TOTAL IN =      792862.5421              TOTAL IN =        2430.1064

          OUT:                                     OUT:
          ----                                     ----
              STO-SS =       35140.1496                STO-SS =          25.0937     STORAGE                          
                 DRN =       14704.9762                   DRN =          47.5311     DRN_SYS1                         
                 RIV =      694773.9790                   RIV =        2221.0819     RIV_SYS1                         
                 RIV =       41755.0394                   RIV =         136.4050     RIV_SYS2                         
                 RCH =        6488.4405                   RCH =           0.0000     RCH_MSW                          

           TOTAL OUT =      792862.5845             TOTAL OUT =        2430.1116

            IN - OUT =      -4.2391E-02              IN - OUT =      -5.2576E-03

 PERCENT DISCREPANCY =          -0.00     PERCENT DISCREPANCY =          -0.00




         TIME SUMMARY AT END OF TIME STEP    1 IN STRESS PERIOD  287
                    SECONDS     MINUTES      HOURS       DAYS        YEARS
                    -----------------------------------------------------------
   TIME STEP LENGTH  86400.      1440.0      24.000      1.0000     2.73785E-03
 STRESS PERIOD TIME  86400.      1440.0      24.000      1.0000     2.73785E-03
         TOTAL TIME 2.47968E+07 4.13280E+05  6888.0      287.00     0.78576    


end timestep


start timestep kper="288" kstp="1" mode="normal"

 #Stressperiod Save Options

 BEGIN READING OUTPUT CONTROL FOR STRESS PERIOD 288
      ALL TIME STEPS WILL BE SAVED
      ALL TIME STEPS WILL BE SAVED

 END READING OUTPUT CONTROL FOR STRESS PERIOD 288


 PROCESSING STORAGE PERIOD DATA
 END PROCESSING STORAGE PERIOD DATA


 STRESS PERIOD 288 IS TRANSIENT


 REUSING DRNS FROM LAST STRESS PERIOD

 REUSING RIVS FROM LAST STRESS PERIOD

 REUSING RIVS FROM LAST STRESS PERIOD

 REUSING RCHS FROM LAST STRESS PERIOD
 UBDSV06 SAVING              DRN IN MODEL GWF_1            PACKAGE GWF_1           CONNECTED TO MODEL GWF_1            PACKAGE DRN_SYS1         ON UNIT   1018 AT TIME STEP      1, STRESS PERIOD    288
 UBDSV06 SAVING              RIV IN MODEL GWF_1            PACKAGE GWF_1           CONNECTED TO MODEL GWF_1            PACKAGE RIV_SYS1         ON UNIT   1018 AT TIME STEP      1, STRESS PERIOD    288
 UBDSV06 SAVING              RIV IN MODEL GWF_1            PACKAGE GWF_1           CONNECTED TO MODEL GWF_1            PACKAGE RIV_SYS2         ON UNIT   1018 AT TIME STEP      1, STRESS PERIOD    288
 UBDSV06 SAVING              RCH IN MODEL GWF_1            PACKAGE GWF_1           CONNECTED TO MODEL GWF_1            PACKAGE RCH_MSW          ON UNIT   1018 AT TIME STEP      1, STRESS PERIOD    288

 HEAD WILL BE SAVED ON UNIT 1017 AT END OF TIME STEP    1, STRESS PERIOD  288


  VOLUME BUDGET FOR ENTIRE MODEL AT END OF TIME STEP    1, STRESS PERIOD 288
  ---------------------------------------------------------------------------------------------------

     CUMULATIVE VOLUME      L**3       RATES FOR THIS TIME STEP      L**3/T          PACKAGE NAME    
     ------------------                 ------------------------                     ----------------

           IN:                                      IN:
           ---                                      ---
              STO-SS =      218403.2686                STO-SS =         195.2473     STORAGE                          
                 DRN =           0.0000                   DRN =           0.0000     DRN_SYS1                         
                 RIV =      236722.4767                   RIV =         738.9629     RIV_SYS1                         
                 RIV =           0.0000                   RIV =           0.0000     RIV_SYS2                         
                 RCH =      340126.0313                   RCH =        1455.0243     RCH_MSW                          

            TOTAL IN =      795251.7765              TOTAL IN =        2389.2344

          OUT:                                     OUT:
          ----                                     ----
              STO-SS =       35149.7869                STO-SS =           9.6373     STORAGE                          
                 DRN =       14752.2699                   DRN =          47.2937     DRN_SYS1                         
                 RIV =      696970.6860                   RIV =        2196.7070     RIV_SYS1                         
                 RIV =       41890.6375                   RIV =         135.5981     RIV_SYS2                         
                 RCH =        6488.4405                   RCH =           0.0000     RCH_MSW                          

           TOTAL OUT =      795251.8207             TOTAL OUT =        2389.2361

            IN - OUT =      -4.4154E-02              IN - OUT =      -1.7624E-03

 PERCENT DISCREPANCY =          -0.00     PERCENT DISCREPANCY =          -0.00




         TIME SUMMARY AT END OF TIME STEP    1 IN STRESS PERIOD  288
                    SECONDS     MINUTES      HOURS       DAYS        YEARS
                    -----------------------------------------------------------
   TIME STEP LENGTH  86400.      1440.0      24.000      1.0000     2.73785E-03
 STRESS PERIOD TIME  86400.      1440.0      24.000      1.0000     2.73785E-03
         TOTAL TIME 2.48832E+07 4.14720E+05  6912.0      288.00     0.78850    


end timestep


start timestep kper="289" kstp="1" mode="normal"

 #Stressperiod Save Options

 BEGIN READING OUTPUT CONTROL FOR STRESS PERIOD 289
      ALL TIME STEPS WILL BE SAVED
      ALL TIME STEPS WILL BE SAVED

 END READING OUTPUT CONTROL FOR STRESS PERIOD 289


 PROCESSING STORAGE PERIOD DATA
 END PROCESSING STORAGE PERIOD DATA


 STRESS PERIOD 289 IS TRANSIENT


 REUSING DRNS FROM LAST STRESS PERIOD

 REUSING RIVS FROM LAST STRESS PERIOD

 REUSING RIVS FROM LAST STRESS PERIOD

 REUSING RCHS FROM LAST STRESS PERIOD
 UBDSV06 SAVING              DRN IN MODEL GWF_1            PACKAGE GWF_1           CONNECTED TO MODEL GWF_1            PACKAGE DRN_SYS1         ON UNIT   1018 AT TIME STEP      1, STRESS PERIOD    289
 UBDSV06 SAVING              RIV IN MODEL GWF_1            PACKAGE GWF_1           CONNECTED TO MODEL GWF_1            PACKAGE RIV_SYS1         ON UNIT   1018 AT TIME STEP      1, STRESS PERIOD    289
 UBDSV06 SAVING              RIV IN MODEL GWF_1            PACKAGE GWF_1           CONNECTED TO MODEL GWF_1            PACKAGE RIV_SYS2         ON UNIT   1018 AT TIME STEP      1, STRESS PERIOD    289
 UBDSV06 SAVING              RCH IN MODEL GWF_1            PACKAGE GWF_1           CONNECTED TO MODEL GWF_1            PACKAGE RCH_MSW          ON UNIT   1018 AT TIME STEP      1, STRESS PERIOD    289

 HEAD WILL BE SAVED ON UNIT 1017 AT END OF TIME STEP    1, STRESS PERIOD  289


  VOLUME BUDGET FOR ENTIRE MODEL AT END OF TIME STEP    1, STRESS PERIOD 289
  ---------------------------------------------------------------------------------------------------

     CUMULATIVE VOLUME      L**3       RATES FOR THIS TIME STEP      L**3/T          PACKAGE NAME    
     ------------------                 ------------------------                     ----------------

           IN:                                      IN:
           ---                                      ---
              STO-SS =      218631.1707                STO-SS =         227.9022     STORAGE                          
                 DRN =           0.0000                   DRN =           0.0000     DRN_SYS1                         
                 RIV =      237473.5925                   RIV =         751.1158     RIV_SYS1                         
                 RIV =           0.0000                   RIV =           0.0000     RIV_SYS2                         
                 RCH =      341502.5790                   RCH =        1376.5478     RCH_MSW                          

            TOTAL IN =      797607.3423              TOTAL IN =        2355.5658

          OUT:                                     OUT:
          ----                                     ----
              STO-SS =       35151.4710                STO-SS =           1.6841     STORAGE                          
                 DRN =       14799.2505                   DRN =          46.9805     DRN_SYS1                         
                 RIV =      699142.9808                   RIV =        2172.2949     RIV_SYS1                         
                 RIV =       42025.2455                   RIV =         134.6081     RIV_SYS2                         
                 RCH =        6488.4405                   RCH =           0.0000     RCH_MSW                          

           TOTAL OUT =      797607.3882             TOTAL OUT =        2355.5676

            IN - OUT =      -4.5901E-02              IN - OUT =      -1.7469E-03

 PERCENT DISCREPANCY =          -0.00     PERCENT DISCREPANCY =          -0.00




         TIME SUMMARY AT END OF TIME STEP    1 IN STRESS PERIOD  289
                    SECONDS     MINUTES      HOURS       DAYS        YEARS
                    -----------------------------------------------------------
   TIME STEP LENGTH  86400.      1440.0      24.000      1.0000     2.73785E-03
 STRESS PERIOD TIME  86400.      1440.0      24.000      1.0000     2.73785E-03
         TOTAL TIME 2.49696E+07 4.16160E+05  6936.0      289.00     0.79124    


end timestep


start timestep kper="290" kstp="1" mode="normal"

 #Stressperiod Save Options

 BEGIN READING OUTPUT CONTROL FOR STRESS PERIOD 290
      ALL TIME STEPS WILL BE SAVED
      ALL TIME STEPS WILL BE SAVED

 END READING OUTPUT CONTROL FOR STRESS PERIOD 290


 PROCESSING STORAGE PERIOD DATA
 END PROCESSING STORAGE PERIOD DATA


 STRESS PERIOD 290 IS TRANSIENT


 REUSING DRNS FROM LAST STRESS PERIOD

 REUSING RIVS FROM LAST STRESS PERIOD

 REUSING RIVS FROM LAST STRESS PERIOD

 REUSING RCHS FROM LAST STRESS PERIOD
 UBDSV06 SAVING              DRN IN MODEL GWF_1            PACKAGE GWF_1           CONNECTED TO MODEL GWF_1            PACKAGE DRN_SYS1         ON UNIT   1018 AT TIME STEP      1, STRESS PERIOD    290
 UBDSV06 SAVING              RIV IN MODEL GWF_1            PACKAGE GWF_1           CONNECTED TO MODEL GWF_1            PACKAGE RIV_SYS1         ON UNIT   1018 AT TIME STEP      1, STRESS PERIOD    290
 UBDSV06 SAVING              RIV IN MODEL GWF_1            PACKAGE GWF_1           CONNECTED TO MODEL GWF_1            PACKAGE RIV_SYS2         ON UNIT   1018 AT TIME STEP      1, STRESS PERIOD    290
 UBDSV06 SAVING              RCH IN MODEL GWF_1            PACKAGE GWF_1           CONNECTED TO MODEL GWF_1            PACKAGE RCH_MSW          ON UNIT   1018 AT TIME STEP      1, STRESS PERIOD    290

 HEAD WILL BE SAVED ON UNIT 1017 AT END OF TIME STEP    1, STRESS PERIOD  290


  VOLUME BUDGET FOR ENTIRE MODEL AT END OF TIME STEP    1, STRESS PERIOD 290
  ---------------------------------------------------------------------------------------------------

     CUMULATIVE VOLUME      L**3       RATES FOR THIS TIME STEP      L**3/T          PACKAGE NAME    
     ------------------                 ------------------------                     ----------------

           IN:                                      IN:
           ---                                      ---
              STO-SS =      218893.4478                STO-SS =         262.2770     STORAGE                          
                 DRN =           0.0000                   DRN =           0.0000     DRN_SYS1                         
                 RIV =      238236.8321                   RIV =         763.2396     RIV_SYS1                         
                 RIV =           0.0000                   RIV =           0.0000     RIV_SYS2                         
                 RCH =      342804.9849                   RCH =        1302.4059     RCH_MSW                          

            TOTAL IN =      799935.2648              TOTAL IN =        2327.9225

          OUT:                                     OUT:
          ----                                     ----
              STO-SS =       35151.4710                STO-SS =           0.0000     STORAGE                          
                 DRN =       14845.8517                   DRN =          46.6013     DRN_SYS1                         
                 RIV =      701290.8439                   RIV =        2147.8631     RIV_SYS1                         
                 RIV =       42158.7026                   RIV =         133.4571     RIV_SYS2                         
                 RCH =        6488.4405                   RCH =           0.0000     RCH_MSW                          

           TOTAL OUT =      799935.3097             TOTAL OUT =        2327.9215

            IN - OUT =      -4.4869E-02              IN - OUT =       1.0315E-03

 PERCENT DISCREPANCY =          -0.00     PERCENT DISCREPANCY =           0.00




         TIME SUMMARY AT END OF TIME STEP    1 IN STRESS PERIOD  290
                    SECONDS     MINUTES      HOURS       DAYS        YEARS
                    -----------------------------------------------------------
   TIME STEP LENGTH  86400.      1440.0      24.000      1.0000     2.73785E-03
 STRESS PERIOD TIME  86400.      1440.0      24.000      1.0000     2.73785E-03
         TOTAL TIME 2.50560E+07 4.17600E+05  6960.0      290.00     0.79398    


end timestep


start timestep kper="291" kstp="1" mode="normal"

 #Stressperiod Save Options

 BEGIN READING OUTPUT CONTROL FOR STRESS PERIOD 291
      ALL TIME STEPS WILL BE SAVED
      ALL TIME STEPS WILL BE SAVED

 END READING OUTPUT CONTROL FOR STRESS PERIOD 291


 PROCESSING STORAGE PERIOD DATA
 END PROCESSING STORAGE PERIOD DATA


 STRESS PERIOD 291 IS TRANSIENT


 REUSING DRNS FROM LAST STRESS PERIOD

 REUSING RIVS FROM LAST STRESS PERIOD

 REUSING RIVS FROM LAST STRESS PERIOD

 REUSING RCHS FROM LAST STRESS PERIOD
 UBDSV06 SAVING              DRN IN MODEL GWF_1            PACKAGE GWF_1           CONNECTED TO MODEL GWF_1            PACKAGE DRN_SYS1         ON UNIT   1018 AT TIME STEP      1, STRESS PERIOD    291
 UBDSV06 SAVING              RIV IN MODEL GWF_1            PACKAGE GWF_1           CONNECTED TO MODEL GWF_1            PACKAGE RIV_SYS1         ON UNIT   1018 AT TIME STEP      1, STRESS PERIOD    291
 UBDSV06 SAVING              RIV IN MODEL GWF_1            PACKAGE GWF_1           CONNECTED TO MODEL GWF_1            PACKAGE RIV_SYS2         ON UNIT   1018 AT TIME STEP      1, STRESS PERIOD    291
 UBDSV06 SAVING              RCH IN MODEL GWF_1            PACKAGE GWF_1           CONNECTED TO MODEL GWF_1            PACKAGE RCH_MSW          ON UNIT   1018 AT TIME STEP      1, STRESS PERIOD    291

 HEAD WILL BE SAVED ON UNIT 1017 AT END OF TIME STEP    1, STRESS PERIOD  291


  VOLUME BUDGET FOR ENTIRE MODEL AT END OF TIME STEP    1, STRESS PERIOD 291
  ---------------------------------------------------------------------------------------------------

     CUMULATIVE VOLUME      L**3       RATES FOR THIS TIME STEP      L**3/T          PACKAGE NAME    
     ------------------                 ------------------------                     ----------------

           IN:                                      IN:
           ---                                      ---
              STO-SS =      219187.5484                STO-SS =         294.1006     STORAGE                          
                 DRN =           0.0000                   DRN =           0.0000     DRN_SYS1                         
                 RIV =      239012.1096                   RIV =         775.2774     RIV_SYS1                         
                 RIV =           0.0000                   RIV =           0.0000     RIV_SYS2                         
                 RCH =      344037.4239                   RCH =        1232.4389     RCH_MSW                          

            TOTAL IN =      802237.0818              TOTAL IN =        2301.8170

          OUT:                                     OUT:
          ----                                     ----
              STO-SS =       35151.4710                STO-SS =           0.0000     STORAGE                          
                 DRN =       14892.0153                   DRN =          46.1635     DRN_SYS1                         
                 RIV =      703414.3316                   RIV =        2123.4877     RIV_SYS1                         
                 RIV =       42290.8696                   RIV =         132.1670     RIV_SYS2                         
                 RCH =        6488.4405                   RCH =           0.0000     RCH_MSW                          

           TOTAL OUT =      802237.1279             TOTAL OUT =        2301.8182

            IN - OUT =      -4.6103E-02              IN - OUT =      -1.2338E-03

 PERCENT DISCREPANCY =          -0.00     PERCENT DISCREPANCY =          -0.00




         TIME SUMMARY AT END OF TIME STEP    1 IN STRESS PERIOD  291
                    SECONDS     MINUTES      HOURS       DAYS        YEARS
                    -----------------------------------------------------------
   TIME STEP LENGTH  86400.      1440.0      24.000      1.0000     2.73785E-03
 STRESS PERIOD TIME  86400.      1440.0      24.000      1.0000     2.73785E-03
         TOTAL TIME 2.51424E+07 4.19040E+05  6984.0      291.00     0.79671    


end timestep


start timestep kper="292" kstp="1" mode="normal"

 #Stressperiod Save Options

 BEGIN READING OUTPUT CONTROL FOR STRESS PERIOD 292
      ALL TIME STEPS WILL BE SAVED
      ALL TIME STEPS WILL BE SAVED

 END READING OUTPUT CONTROL FOR STRESS PERIOD 292


 PROCESSING STORAGE PERIOD DATA
 END PROCESSING STORAGE PERIOD DATA


 STRESS PERIOD 292 IS TRANSIENT


 REUSING DRNS FROM LAST STRESS PERIOD

 REUSING RIVS FROM LAST STRESS PERIOD

 REUSING RIVS FROM LAST STRESS PERIOD

 REUSING RCHS FROM LAST STRESS PERIOD
 UBDSV06 SAVING              DRN IN MODEL GWF_1            PACKAGE GWF_1           CONNECTED TO MODEL GWF_1            PACKAGE DRN_SYS1         ON UNIT   1018 AT TIME STEP      1, STRESS PERIOD    292
 UBDSV06 SAVING              RIV IN MODEL GWF_1            PACKAGE GWF_1           CONNECTED TO MODEL GWF_1            PACKAGE RIV_SYS1         ON UNIT   1018 AT TIME STEP      1, STRESS PERIOD    292
 UBDSV06 SAVING              RIV IN MODEL GWF_1            PACKAGE GWF_1           CONNECTED TO MODEL GWF_1            PACKAGE RIV_SYS2         ON UNIT   1018 AT TIME STEP      1, STRESS PERIOD    292
 UBDSV06 SAVING              RCH IN MODEL GWF_1            PACKAGE GWF_1           CONNECTED TO MODEL GWF_1            PACKAGE RCH_MSW          ON UNIT   1018 AT TIME STEP      1, STRESS PERIOD    292

 HEAD WILL BE SAVED ON UNIT 1017 AT END OF TIME STEP    1, STRESS PERIOD  292


  VOLUME BUDGET FOR ENTIRE MODEL AT END OF TIME STEP    1, STRESS PERIOD 292
  ---------------------------------------------------------------------------------------------------

     CUMULATIVE VOLUME      L**3       RATES FOR THIS TIME STEP      L**3/T          PACKAGE NAME    
     ------------------                 ------------------------                     ----------------

           IN:                                      IN:
           ---                                      ---
              STO-SS =      219507.1188                STO-SS =         319.5704     STORAGE                          
                 DRN =           0.0000                   DRN =           0.0000     DRN_SYS1                         
                 RIV =      239799.2921                   RIV =         787.1825     RIV_SYS1                         
                 RIV =           0.0000                   RIV =           0.0000     RIV_SYS2                         
                 RCH =      345206.5062                   RCH =        1169.0823     RCH_MSW                          

            TOTAL IN =      804512.9170              TOTAL IN =        2275.8352

          OUT:                                     OUT:
          ----                                     ----
              STO-SS =       35151.4710                STO-SS =           0.0000     STORAGE                          
                 DRN =       14937.6945                   DRN =          45.6793     DRN_SYS1                         
                 RIV =      705513.7162                   RIV =        2099.3846     RIV_SYS1                         
                 RIV =       42421.6381                   RIV =         130.7684     RIV_SYS2                         
                 RCH =        6488.4405                   RCH =           0.0000     RCH_MSW                          

           TOTAL OUT =      804512.9602             TOTAL OUT =        2275.8323

            IN - OUT =      -4.3207E-02              IN - OUT =       2.8962E-03

 PERCENT DISCREPANCY =          -0.00     PERCENT DISCREPANCY =           0.00




         TIME SUMMARY AT END OF TIME STEP    1 IN STRESS PERIOD  292
                    SECONDS     MINUTES      HOURS       DAYS        YEARS
                    -----------------------------------------------------------
   TIME STEP LENGTH  86400.      1440.0      24.000      1.0000     2.73785E-03
 STRESS PERIOD TIME  86400.      1440.0      24.000      1.0000     2.73785E-03
         TOTAL TIME 2.52288E+07 4.20480E+05  7008.0      292.00     0.79945    


end timestep


start timestep kper="293" kstp="1" mode="normal"

 #Stressperiod Save Options

 BEGIN READING OUTPUT CONTROL FOR STRESS PERIOD 293
      ALL TIME STEPS WILL BE SAVED
      ALL TIME STEPS WILL BE SAVED

 END READING OUTPUT CONTROL FOR STRESS PERIOD 293


 PROCESSING STORAGE PERIOD DATA
 END PROCESSING STORAGE PERIOD DATA


 STRESS PERIOD 293 IS TRANSIENT


 REUSING DRNS FROM LAST STRESS PERIOD

 REUSING RIVS FROM LAST STRESS PERIOD

 REUSING RIVS FROM LAST STRESS PERIOD

 REUSING RCHS FROM LAST STRESS PERIOD
 UBDSV06 SAVING              DRN IN MODEL GWF_1            PACKAGE GWF_1           CONNECTED TO MODEL GWF_1            PACKAGE DRN_SYS1         ON UNIT   1018 AT TIME STEP      1, STRESS PERIOD    293
 UBDSV06 SAVING              RIV IN MODEL GWF_1            PACKAGE GWF_1           CONNECTED TO MODEL GWF_1            PACKAGE RIV_SYS1         ON UNIT   1018 AT TIME STEP      1, STRESS PERIOD    293
 UBDSV06 SAVING              RIV IN MODEL GWF_1            PACKAGE GWF_1           CONNECTED TO MODEL GWF_1            PACKAGE RIV_SYS2         ON UNIT   1018 AT TIME STEP      1, STRESS PERIOD    293
 UBDSV06 SAVING              RCH IN MODEL GWF_1            PACKAGE GWF_1           CONNECTED TO MODEL GWF_1            PACKAGE RCH_MSW          ON UNIT   1018 AT TIME STEP      1, STRESS PERIOD    293

 HEAD WILL BE SAVED ON UNIT 1017 AT END OF TIME STEP    1, STRESS PERIOD  293


  VOLUME BUDGET FOR ENTIRE MODEL AT END OF TIME STEP    1, STRESS PERIOD 293
  ---------------------------------------------------------------------------------------------------

     CUMULATIVE VOLUME      L**3       RATES FOR THIS TIME STEP      L**3/T          PACKAGE NAME    
     ------------------                 ------------------------                     ----------------

           IN:                                      IN:
           ---                                      ---
              STO-SS =      219846.9259                STO-SS =         339.8071     STORAGE                          
                 DRN =           0.0000                   DRN =           0.0000     DRN_SYS1                         
                 RIV =      240598.1358                   RIV =         798.8438     RIV_SYS1                         
                 RIV =           0.0000                   RIV =           0.0000     RIV_SYS2                         
                 RCH =      346317.9507                   RCH =        1111.4446     RCH_MSW                          

            TOTAL IN =      806763.0125              TOTAL IN =        2250.0954

          OUT:                                     OUT:
          ----                                     ----
              STO-SS =       35151.4710                STO-SS =           0.0000     STORAGE                          
                 DRN =       14982.8549                   DRN =          45.1603     DRN_SYS1                         
                 RIV =      707589.3575                   RIV =        2075.6413     RIV_SYS1                         
                 RIV =       42550.9323                   RIV =         129.2943     RIV_SYS2                         
                 RCH =        6488.4405                   RCH =           0.0000     RCH_MSW                          

           TOTAL OUT =      806763.0561             TOTAL OUT =        2250.0959

            IN - OUT =      -4.3675E-02              IN - OUT =      -4.6855E-04

 PERCENT DISCREPANCY =          -0.00     PERCENT DISCREPANCY =          -0.00




         TIME SUMMARY AT END OF TIME STEP    1 IN STRESS PERIOD  293
                    SECONDS     MINUTES      HOURS       DAYS        YEARS
                    -----------------------------------------------------------
   TIME STEP LENGTH  86400.      1440.0      24.000      1.0000     2.73785E-03
 STRESS PERIOD TIME  86400.      1440.0      24.000      1.0000     2.73785E-03
         TOTAL TIME 2.53152E+07 4.21920E+05  7032.0      293.00     0.80219    


end timestep


start timestep kper="294" kstp="1" mode="normal"

 #Stressperiod Save Options

 BEGIN READING OUTPUT CONTROL FOR STRESS PERIOD 294
      ALL TIME STEPS WILL BE SAVED
      ALL TIME STEPS WILL BE SAVED

 END READING OUTPUT CONTROL FOR STRESS PERIOD 294


 PROCESSING STORAGE PERIOD DATA
 END PROCESSING STORAGE PERIOD DATA


 STRESS PERIOD 294 IS TRANSIENT


 REUSING DRNS FROM LAST STRESS PERIOD

 REUSING RIVS FROM LAST STRESS PERIOD

 REUSING RIVS FROM LAST STRESS PERIOD

 REUSING RCHS FROM LAST STRESS PERIOD
 UBDSV06 SAVING              DRN IN MODEL GWF_1            PACKAGE GWF_1           CONNECTED TO MODEL GWF_1            PACKAGE DRN_SYS1         ON UNIT   1018 AT TIME STEP      1, STRESS PERIOD    294
 UBDSV06 SAVING              RIV IN MODEL GWF_1            PACKAGE GWF_1           CONNECTED TO MODEL GWF_1            PACKAGE RIV_SYS1         ON UNIT   1018 AT TIME STEP      1, STRESS PERIOD    294
 UBDSV06 SAVING              RIV IN MODEL GWF_1            PACKAGE GWF_1           CONNECTED TO MODEL GWF_1            PACKAGE RIV_SYS2         ON UNIT   1018 AT TIME STEP      1, STRESS PERIOD    294
 UBDSV06 SAVING              RCH IN MODEL GWF_1            PACKAGE GWF_1           CONNECTED TO MODEL GWF_1            PACKAGE RCH_MSW          ON UNIT   1018 AT TIME STEP      1, STRESS PERIOD    294

 HEAD WILL BE SAVED ON UNIT 1017 AT END OF TIME STEP    1, STRESS PERIOD  294


  VOLUME BUDGET FOR ENTIRE MODEL AT END OF TIME STEP    1, STRESS PERIOD 294
  ---------------------------------------------------------------------------------------------------

     CUMULATIVE VOLUME      L**3       RATES FOR THIS TIME STEP      L**3/T          PACKAGE NAME    
     ------------------                 ------------------------                     ----------------

           IN:                                      IN:
           ---                                      ---
              STO-SS =      220203.7924                STO-SS =         356.8665     STORAGE                          
                 DRN =           0.0000                   DRN =           0.0000     DRN_SYS1                         
                 RIV =      241408.3329                   RIV =         810.1971     RIV_SYS1                         
                 RIV =           0.0000                   RIV =           0.0000     RIV_SYS2                         
                 RCH =      347375.5709                   RCH =        1057.6202     RCH_MSW                          

            TOTAL IN =      808987.6962              TOTAL IN =        2224.6838

          OUT:                                     OUT:
          ----                                     ----
              STO-SS =       35151.4710                STO-SS =           0.0000     STORAGE                          
                 DRN =       15027.4664                   DRN =          44.6115     DRN_SYS1                         
                 RIV =      709641.6735                   RIV =        2052.3160     RIV_SYS1                         
                 RIV =       42678.6892                   RIV =         127.7568     RIV_SYS2                         
                 RCH =        6488.4405                   RCH =           0.0000     RCH_MSW                          

           TOTAL OUT =      808987.7405             TOTAL OUT =        2224.6844

            IN - OUT =      -4.4254E-02              IN - OUT =      -5.7876E-04

 PERCENT DISCREPANCY =          -0.00     PERCENT DISCREPANCY =          -0.00




         TIME SUMMARY AT END OF TIME STEP    1 IN STRESS PERIOD  294
                    SECONDS     MINUTES      HOURS       DAYS        YEARS
                    -----------------------------------------------------------
   TIME STEP LENGTH  86400.      1440.0      24.000      1.0000     2.73785E-03
 STRESS PERIOD TIME  86400.      1440.0      24.000      1.0000     2.73785E-03
         TOTAL TIME 2.54016E+07 4.23360E+05  7056.0      294.00     0.80493    


end timestep


start timestep kper="295" kstp="1" mode="normal"

 #Stressperiod Save Options

 BEGIN READING OUTPUT CONTROL FOR STRESS PERIOD 295
      ALL TIME STEPS WILL BE SAVED
      ALL TIME STEPS WILL BE SAVED

 END READING OUTPUT CONTROL FOR STRESS PERIOD 295


 PROCESSING STORAGE PERIOD DATA
 END PROCESSING STORAGE PERIOD DATA


 STRESS PERIOD 295 IS TRANSIENT


 REUSING DRNS FROM LAST STRESS PERIOD

 REUSING RIVS FROM LAST STRESS PERIOD

 REUSING RIVS FROM LAST STRESS PERIOD

 REUSING RCHS FROM LAST STRESS PERIOD
 UBDSV06 SAVING              DRN IN MODEL GWF_1            PACKAGE GWF_1           CONNECTED TO MODEL GWF_1            PACKAGE DRN_SYS1         ON UNIT   1018 AT TIME STEP      1, STRESS PERIOD    295
 UBDSV06 SAVING              RIV IN MODEL GWF_1            PACKAGE GWF_1           CONNECTED TO MODEL GWF_1            PACKAGE RIV_SYS1         ON UNIT   1018 AT TIME STEP      1, STRESS PERIOD    295
 UBDSV06 SAVING              RIV IN MODEL GWF_1            PACKAGE GWF_1           CONNECTED TO MODEL GWF_1            PACKAGE RIV_SYS2         ON UNIT   1018 AT TIME STEP      1, STRESS PERIOD    295
 UBDSV06 SAVING              RCH IN MODEL GWF_1            PACKAGE GWF_1           CONNECTED TO MODEL GWF_1            PACKAGE RCH_MSW          ON UNIT   1018 AT TIME STEP      1, STRESS PERIOD    295

 HEAD WILL BE SAVED ON UNIT 1017 AT END OF TIME STEP    1, STRESS PERIOD  295


  VOLUME BUDGET FOR ENTIRE MODEL AT END OF TIME STEP    1, STRESS PERIOD 295
  ---------------------------------------------------------------------------------------------------

     CUMULATIVE VOLUME      L**3       RATES FOR THIS TIME STEP      L**3/T          PACKAGE NAME    
     ------------------                 ------------------------                     ----------------

           IN:                                      IN:
           ---                                      ---
              STO-SS =      220557.9345                STO-SS =         354.1421     STORAGE                          
                 DRN =           0.0000                   DRN =           0.0000     DRN_SYS1                         
                 RIV =      242228.7439                   RIV =         820.4110     RIV_SYS1                         
                 RIV =           0.0000                   RIV =           0.0000     RIV_SYS2                         
                 RCH =      348402.7603                   RCH =        1027.1894     RCH_MSW                          

            TOTAL IN =      811189.4387              TOTAL IN =        2201.7425

          OUT:                                     OUT:
          ----                                     ----
              STO-SS =       35151.4710                STO-SS =           0.0000     STORAGE                          
                 DRN =       15071.5147                   DRN =          44.0483     DRN_SYS1                         
                 RIV =      711673.1645                   RIV =        2031.4910     RIV_SYS1                         
                 RIV =       42804.8930                   RIV =         126.2038     RIV_SYS2                         
                 RCH =        6488.4405                   RCH =           0.0000     RCH_MSW                          

           TOTAL OUT =      811189.4837             TOTAL OUT =        2201.7432

            IN - OUT =      -4.4950E-02              IN - OUT =      -6.9621E-04

 PERCENT DISCREPANCY =          -0.00     PERCENT DISCREPANCY =          -0.00




         TIME SUMMARY AT END OF TIME STEP    1 IN STRESS PERIOD  295
                    SECONDS     MINUTES      HOURS       DAYS        YEARS
                    -----------------------------------------------------------
   TIME STEP LENGTH  86400.      1440.0      24.000      1.0000     2.73785E-03
 STRESS PERIOD TIME  86400.      1440.0      24.000      1.0000     2.73785E-03
         TOTAL TIME 2.54880E+07 4.24800E+05  7080.0      295.00     0.80767    


end timestep


start timestep kper="296" kstp="1" mode="normal"

 #Stressperiod Save Options

 BEGIN READING OUTPUT CONTROL FOR STRESS PERIOD 296
      ALL TIME STEPS WILL BE SAVED
      ALL TIME STEPS WILL BE SAVED

 END READING OUTPUT CONTROL FOR STRESS PERIOD 296


 PROCESSING STORAGE PERIOD DATA
 END PROCESSING STORAGE PERIOD DATA


 STRESS PERIOD 296 IS TRANSIENT


 REUSING DRNS FROM LAST STRESS PERIOD

 REUSING RIVS FROM LAST STRESS PERIOD

 REUSING RIVS FROM LAST STRESS PERIOD

 REUSING RCHS FROM LAST STRESS PERIOD
 UBDSV06 SAVING              DRN IN MODEL GWF_1            PACKAGE GWF_1           CONNECTED TO MODEL GWF_1            PACKAGE DRN_SYS1         ON UNIT   1018 AT TIME STEP      1, STRESS PERIOD    296
 UBDSV06 SAVING              RIV IN MODEL GWF_1            PACKAGE GWF_1           CONNECTED TO MODEL GWF_1            PACKAGE RIV_SYS1         ON UNIT   1018 AT TIME STEP      1, STRESS PERIOD    296
 UBDSV06 SAVING              RIV IN MODEL GWF_1            PACKAGE GWF_1           CONNECTED TO MODEL GWF_1            PACKAGE RIV_SYS2         ON UNIT   1018 AT TIME STEP      1, STRESS PERIOD    296
 UBDSV06 SAVING              RCH IN MODEL GWF_1            PACKAGE GWF_1           CONNECTED TO MODEL GWF_1            PACKAGE RCH_MSW          ON UNIT   1018 AT TIME STEP      1, STRESS PERIOD    296

 HEAD WILL BE SAVED ON UNIT 1017 AT END OF TIME STEP    1, STRESS PERIOD  296


  VOLUME BUDGET FOR ENTIRE MODEL AT END OF TIME STEP    1, STRESS PERIOD 296
  ---------------------------------------------------------------------------------------------------

     CUMULATIVE VOLUME      L**3       RATES FOR THIS TIME STEP      L**3/T          PACKAGE NAME    
     ------------------                 ------------------------                     ----------------

           IN:                                      IN:
           ---                                      ---
              STO-SS =      220918.1877                STO-SS =         360.2533     STORAGE                          
                 DRN =           0.0000                   DRN =           0.0000     DRN_SYS1                         
                 RIV =      243059.1115                   RIV =         830.3675     RIV_SYS1                         
                 RIV =           0.0000                   RIV =           0.0000     RIV_SYS2                         
                 RCH =      349391.1853                   RCH =         988.4250     RCH_MSW                          

            TOTAL IN =      813368.4845              TOTAL IN =        2179.0458

          OUT:                                     OUT:
          ----                                     ----
              STO-SS =       35151.4710                STO-SS =           0.0000     STORAGE                          
                 DRN =       15114.9895                   DRN =          43.4748     DRN_SYS1                         
                 RIV =      713684.0987                   RIV =        2010.9342     RIV_SYS1                         
                 RIV =       42929.5296                   RIV =         124.6366     RIV_SYS2                         
                 RCH =        6488.4405                   RCH =           0.0000     RCH_MSW                          

           TOTAL OUT =      813368.5292             TOTAL OUT =        2179.0456

            IN - OUT =      -4.4717E-02              IN - OUT =       2.3355E-04

 PERCENT DISCREPANCY =          -0.00     PERCENT DISCREPANCY =           0.00




         TIME SUMMARY AT END OF TIME STEP    1 IN STRESS PERIOD  296
                    SECONDS     MINUTES      HOURS       DAYS        YEARS
                    -----------------------------------------------------------
   TIME STEP LENGTH  86400.      1440.0      24.000      1.0000     2.73785E-03
 STRESS PERIOD TIME  86400.      1440.0      24.000      1.0000     2.73785E-03
         TOTAL TIME 2.55744E+07 4.26240E+05  7104.0      296.00     0.81040    


end timestep


start timestep kper="297" kstp="1" mode="normal"

 #Stressperiod Save Options

 BEGIN READING OUTPUT CONTROL FOR STRESS PERIOD 297
      ALL TIME STEPS WILL BE SAVED
      ALL TIME STEPS WILL BE SAVED

 END READING OUTPUT CONTROL FOR STRESS PERIOD 297


 PROCESSING STORAGE PERIOD DATA
 END PROCESSING STORAGE PERIOD DATA


 STRESS PERIOD 297 IS TRANSIENT


 REUSING DRNS FROM LAST STRESS PERIOD

 REUSING RIVS FROM LAST STRESS PERIOD

 REUSING RIVS FROM LAST STRESS PERIOD

 REUSING RCHS FROM LAST STRESS PERIOD
 UBDSV06 SAVING              DRN IN MODEL GWF_1            PACKAGE GWF_1           CONNECTED TO MODEL GWF_1            PACKAGE DRN_SYS1         ON UNIT   1018 AT TIME STEP      1, STRESS PERIOD    297
 UBDSV06 SAVING              RIV IN MODEL GWF_1            PACKAGE GWF_1           CONNECTED TO MODEL GWF_1            PACKAGE RIV_SYS1         ON UNIT   1018 AT TIME STEP      1, STRESS PERIOD    297
 UBDSV06 SAVING              RIV IN MODEL GWF_1            PACKAGE GWF_1           CONNECTED TO MODEL GWF_1            PACKAGE RIV_SYS2         ON UNIT   1018 AT TIME STEP      1, STRESS PERIOD    297
 UBDSV06 SAVING              RCH IN MODEL GWF_1            PACKAGE GWF_1           CONNECTED TO MODEL GWF_1            PACKAGE RCH_MSW          ON UNIT   1018 AT TIME STEP      1, STRESS PERIOD    297

 HEAD WILL BE SAVED ON UNIT 1017 AT END OF TIME STEP    1, STRESS PERIOD  297


  VOLUME BUDGET FOR ENTIRE MODEL AT END OF TIME STEP    1, STRESS PERIOD 297
  ---------------------------------------------------------------------------------------------------

     CUMULATIVE VOLUME      L**3       RATES FOR THIS TIME STEP      L**3/T          PACKAGE NAME    
     ------------------                 ------------------------                     ----------------

           IN:                                      IN:
           ---                                      ---
              STO-SS =      221280.7274                STO-SS =         362.5397     STORAGE                          
                 DRN =           0.0000                   DRN =           0.0000     DRN_SYS1                         
                 RIV =      243899.0565                   RIV =         839.9451     RIV_SYS1                         
                 RIV =           0.0000                   RIV =           0.0000     RIV_SYS2                         
                 RCH =      350345.8393                   RCH =         954.6540     RCH_MSW                          

            TOTAL IN =      815525.6232              TOTAL IN =        2157.1387

          OUT:                                     OUT:
          ----                                     ----
              STO-SS =       35151.4710                STO-SS =           0.0000     STORAGE                          
                 DRN =       15157.8837                   DRN =          42.8942     DRN_SYS1                         
                 RIV =      715675.2774                   RIV =        1991.1787     RIV_SYS1                         
                 RIV =       43052.5966                   RIV =         123.0670     RIV_SYS2                         
                 RCH =        6488.4405                   RCH =           0.0000     RCH_MSW                          

           TOTAL OUT =      815525.6691             TOTAL OUT =        2157.1398

            IN - OUT =      -4.5868E-02              IN - OUT =      -1.1514E-03

 PERCENT DISCREPANCY =          -0.00     PERCENT DISCREPANCY =          -0.00




         TIME SUMMARY AT END OF TIME STEP    1 IN STRESS PERIOD  297
                    SECONDS     MINUTES      HOURS       DAYS        YEARS
                    -----------------------------------------------------------
   TIME STEP LENGTH  86400.      1440.0      24.000      1.0000     2.73785E-03
 STRESS PERIOD TIME  86400.      1440.0      24.000      1.0000     2.73785E-03
         TOTAL TIME 2.56608E+07 4.27680E+05  7128.0      297.00     0.81314    


end timestep


start timestep kper="298" kstp="1" mode="normal"

 #Stressperiod Save Options

 BEGIN READING OUTPUT CONTROL FOR STRESS PERIOD 298
      ALL TIME STEPS WILL BE SAVED
      ALL TIME STEPS WILL BE SAVED

 END READING OUTPUT CONTROL FOR STRESS PERIOD 298


 PROCESSING STORAGE PERIOD DATA
 END PROCESSING STORAGE PERIOD DATA


 STRESS PERIOD 298 IS TRANSIENT


 REUSING DRNS FROM LAST STRESS PERIOD

 REUSING RIVS FROM LAST STRESS PERIOD

 REUSING RIVS FROM LAST STRESS PERIOD

 REUSING RCHS FROM LAST STRESS PERIOD
 UBDSV06 SAVING              DRN IN MODEL GWF_1            PACKAGE GWF_1           CONNECTED TO MODEL GWF_1            PACKAGE DRN_SYS1         ON UNIT   1018 AT TIME STEP      1, STRESS PERIOD    298
 UBDSV06 SAVING              RIV IN MODEL GWF_1            PACKAGE GWF_1           CONNECTED TO MODEL GWF_1            PACKAGE RIV_SYS1         ON UNIT   1018 AT TIME STEP      1, STRESS PERIOD    298
 UBDSV06 SAVING              RIV IN MODEL GWF_1            PACKAGE GWF_1           CONNECTED TO MODEL GWF_1            PACKAGE RIV_SYS2         ON UNIT   1018 AT TIME STEP      1, STRESS PERIOD    298
 UBDSV06 SAVING              RCH IN MODEL GWF_1            PACKAGE GWF_1           CONNECTED TO MODEL GWF_1            PACKAGE RCH_MSW          ON UNIT   1018 AT TIME STEP      1, STRESS PERIOD    298

 HEAD WILL BE SAVED ON UNIT 1017 AT END OF TIME STEP    1, STRESS PERIOD  298


  VOLUME BUDGET FOR ENTIRE MODEL AT END OF TIME STEP    1, STRESS PERIOD 298
  ---------------------------------------------------------------------------------------------------

     CUMULATIVE VOLUME      L**3       RATES FOR THIS TIME STEP      L**3/T          PACKAGE NAME    
     ------------------                 ------------------------                     ----------------

           IN:                                      IN:
           ---                                      ---
              STO-SS =      221636.2201                STO-SS =         355.4927     STORAGE                          
                 DRN =           0.0000                   DRN =           0.0000     DRN_SYS1                         
                 RIV =      244748.8953                   RIV =         849.8388     RIV_SYS1                         
                 RIV =           0.0000                   RIV =           0.0000     RIV_SYS2                         
                 RCH =      351278.4044                   RCH =         932.5651     RCH_MSW                          

            TOTAL IN =      817663.5198              TOTAL IN =        2137.8966

          OUT:                                     OUT:
          ----                                     ----
              STO-SS =       35151.4710                STO-SS =           0.0000     STORAGE                          
                 DRN =       15200.1993                   DRN =          42.3156     DRN_SYS1                         
                 RIV =      717649.3419                   RIV =        1974.0645     RIV_SYS1                         
                 RIV =       43174.1121                   RIV =         121.5155     RIV_SYS2                         
                 RCH =        6488.4405                   RCH =           0.0000     RCH_MSW                          

           TOTAL OUT =      817663.5647             TOTAL OUT =        2137.8956

            IN - OUT =      -4.4913E-02              IN - OUT =       9.5532E-04

 PERCENT DISCREPANCY =          -0.00     PERCENT DISCREPANCY =           0.00




         TIME SUMMARY AT END OF TIME STEP    1 IN STRESS PERIOD  298
                    SECONDS     MINUTES      HOURS       DAYS        YEARS
                    -----------------------------------------------------------
   TIME STEP LENGTH  86400.      1440.0      24.000      1.0000     2.73785E-03
 STRESS PERIOD TIME  86400.      1440.0      24.000      1.0000     2.73785E-03
         TOTAL TIME 2.57472E+07 4.29120E+05  7152.0      298.00     0.81588    


end timestep


start timestep kper="299" kstp="1" mode="normal"

 #Stressperiod Save Options

 BEGIN READING OUTPUT CONTROL FOR STRESS PERIOD 299
      ALL TIME STEPS WILL BE SAVED
      ALL TIME STEPS WILL BE SAVED

 END READING OUTPUT CONTROL FOR STRESS PERIOD 299


 PROCESSING STORAGE PERIOD DATA
 END PROCESSING STORAGE PERIOD DATA


 STRESS PERIOD 299 IS TRANSIENT


 REUSING DRNS FROM LAST STRESS PERIOD

 REUSING RIVS FROM LAST STRESS PERIOD

 REUSING RIVS FROM LAST STRESS PERIOD

 REUSING RCHS FROM LAST STRESS PERIOD
 UBDSV06 SAVING              DRN IN MODEL GWF_1            PACKAGE GWF_1           CONNECTED TO MODEL GWF_1            PACKAGE DRN_SYS1         ON UNIT   1018 AT TIME STEP      1, STRESS PERIOD    299
 UBDSV06 SAVING              RIV IN MODEL GWF_1            PACKAGE GWF_1           CONNECTED TO MODEL GWF_1            PACKAGE RIV_SYS1         ON UNIT   1018 AT TIME STEP      1, STRESS PERIOD    299
 UBDSV06 SAVING              RIV IN MODEL GWF_1            PACKAGE GWF_1           CONNECTED TO MODEL GWF_1            PACKAGE RIV_SYS2         ON UNIT   1018 AT TIME STEP      1, STRESS PERIOD    299
 UBDSV06 SAVING              RCH IN MODEL GWF_1            PACKAGE GWF_1           CONNECTED TO MODEL GWF_1            PACKAGE RCH_MSW          ON UNIT   1018 AT TIME STEP      1, STRESS PERIOD    299

 HEAD WILL BE SAVED ON UNIT 1017 AT END OF TIME STEP    1, STRESS PERIOD  299


  VOLUME BUDGET FOR ENTIRE MODEL AT END OF TIME STEP    1, STRESS PERIOD 299
  ---------------------------------------------------------------------------------------------------

     CUMULATIVE VOLUME      L**3       RATES FOR THIS TIME STEP      L**3/T          PACKAGE NAME    
     ------------------                 ------------------------                     ----------------

           IN:                                      IN:
           ---                                      ---
              STO-SS =      221735.3407                STO-SS =          99.1206     STORAGE                          
                 DRN =           0.0000                   DRN =           0.0000     DRN_SYS1                         
                 RIV =      245588.5471                   RIV =         839.6518     RIV_SYS1                         
                 RIV =           0.0000                   RIV =           0.0000     RIV_SYS2                         
                 RCH =      352540.8122                   RCH =        1262.4079     RCH_MSW                          

            TOTAL IN =      819864.7000              TOTAL IN =        2201.1802

          OUT:                                     OUT:
          ----                                     ----
              STO-SS =       35194.4969                STO-SS =          43.0259     STORAGE                          
                 DRN =       15242.2938                   DRN =          42.0945     DRN_SYS1                         
                 RIV =      719644.3909                   RIV =        1995.0490     RIV_SYS1                         
                 RIV =       43295.1296                   RIV =         121.0175     RIV_SYS2                         
                 RCH =        6488.4405                   RCH =           0.0000     RCH_MSW                          

           TOTAL OUT =      819864.7517             TOTAL OUT =        2201.1870

            IN - OUT =      -5.1640E-02              IN - OUT =      -6.7274E-03

 PERCENT DISCREPANCY =          -0.00     PERCENT DISCREPANCY =          -0.00




         TIME SUMMARY AT END OF TIME STEP    1 IN STRESS PERIOD  299
                    SECONDS     MINUTES      HOURS       DAYS        YEARS
                    -----------------------------------------------------------
   TIME STEP LENGTH  86400.      1440.0      24.000      1.0000     2.73785E-03
 STRESS PERIOD TIME  86400.      1440.0      24.000      1.0000     2.73785E-03
         TOTAL TIME 2.58336E+07 4.30560E+05  7176.0      299.00     0.81862    


end timestep


start timestep kper="300" kstp="1" mode="normal"

 #Stressperiod Save Options

 BEGIN READING OUTPUT CONTROL FOR STRESS PERIOD 300
      ALL TIME STEPS WILL BE SAVED
      ALL TIME STEPS WILL BE SAVED

 END READING OUTPUT CONTROL FOR STRESS PERIOD 300


 PROCESSING STORAGE PERIOD DATA
 END PROCESSING STORAGE PERIOD DATA


 STRESS PERIOD 300 IS TRANSIENT


 REUSING DRNS FROM LAST STRESS PERIOD

 REUSING RIVS FROM LAST STRESS PERIOD

 REUSING RIVS FROM LAST STRESS PERIOD

 REUSING RCHS FROM LAST STRESS PERIOD
 UBDSV06 SAVING              DRN IN MODEL GWF_1            PACKAGE GWF_1           CONNECTED TO MODEL GWF_1            PACKAGE DRN_SYS1         ON UNIT   1018 AT TIME STEP      1, STRESS PERIOD    300
 UBDSV06 SAVING              RIV IN MODEL GWF_1            PACKAGE GWF_1           CONNECTED TO MODEL GWF_1            PACKAGE RIV_SYS1         ON UNIT   1018 AT TIME STEP      1, STRESS PERIOD    300
 UBDSV06 SAVING              RIV IN MODEL GWF_1            PACKAGE GWF_1           CONNECTED TO MODEL GWF_1            PACKAGE RIV_SYS2         ON UNIT   1018 AT TIME STEP      1, STRESS PERIOD    300
 UBDSV06 SAVING              RCH IN MODEL GWF_1            PACKAGE GWF_1           CONNECTED TO MODEL GWF_1            PACKAGE RCH_MSW          ON UNIT   1018 AT TIME STEP      1, STRESS PERIOD    300

 HEAD WILL BE SAVED ON UNIT 1017 AT END OF TIME STEP    1, STRESS PERIOD  300


  VOLUME BUDGET FOR ENTIRE MODEL AT END OF TIME STEP    1, STRESS PERIOD 300
  ---------------------------------------------------------------------------------------------------

     CUMULATIVE VOLUME      L**3       RATES FOR THIS TIME STEP      L**3/T          PACKAGE NAME    
     ------------------                 ------------------------                     ----------------

           IN:                                      IN:
           ---                                      ---
              STO-SS =      221758.2946                STO-SS =          22.9539     STORAGE                          
                 DRN =           0.0000                   DRN =           0.0000     DRN_SYS1                         
                 RIV =      246413.6726                   RIV =         825.1255     RIV_SYS1                         
                 RIV =           0.0000                   RIV =           0.0000     RIV_SYS2                         
                 RCH =      354011.8430                   RCH =        1471.0307     RCH_MSW                          

            TOTAL IN =      822183.8102              TOTAL IN =        2319.1102

          OUT:                                     OUT:
          ----                                     ----
              STO-SS =       35320.7066                STO-SS =         126.2097     STORAGE                          
                 DRN =       15284.4171                   DRN =          42.1233     DRN_SYS1                         
                 RIV =      721673.9213                   RIV =        2029.5304     RIV_SYS1                         
                 RIV =       43416.3717                   RIV =         121.2421     RIV_SYS2                         
                 RCH =        6488.4405                   RCH =           0.0000     RCH_MSW                          

           TOTAL OUT =      822183.8572             TOTAL OUT =        2319.1055

            IN - OUT =      -4.6996E-02              IN - OUT =       4.6439E-03

 PERCENT DISCREPANCY =          -0.00     PERCENT DISCREPANCY =           0.00




         TIME SUMMARY AT END OF TIME STEP    1 IN STRESS PERIOD  300
                    SECONDS     MINUTES      HOURS       DAYS        YEARS
                    -----------------------------------------------------------
   TIME STEP LENGTH  86400.      1440.0      24.000      1.0000     2.73785E-03
 STRESS PERIOD TIME  86400.      1440.0      24.000      1.0000     2.73785E-03
         TOTAL TIME 2.59200E+07 4.32000E+05  7200.0      300.00     0.82136    


end timestep


start timestep kper="301" kstp="1" mode="normal"

 #Stressperiod Save Options

 BEGIN READING OUTPUT CONTROL FOR STRESS PERIOD 301
      ALL TIME STEPS WILL BE SAVED
      ALL TIME STEPS WILL BE SAVED

 END READING OUTPUT CONTROL FOR STRESS PERIOD 301


 PROCESSING STORAGE PERIOD DATA
 END PROCESSING STORAGE PERIOD DATA


 STRESS PERIOD 301 IS TRANSIENT


 REUSING DRNS FROM LAST STRESS PERIOD

 REUSING RIVS FROM LAST STRESS PERIOD

 REUSING RIVS FROM LAST STRESS PERIOD

 REUSING RCHS FROM LAST STRESS PERIOD
 UBDSV06 SAVING              DRN IN MODEL GWF_1            PACKAGE GWF_1           CONNECTED TO MODEL GWF_1            PACKAGE DRN_SYS1         ON UNIT   1018 AT TIME STEP      1, STRESS PERIOD    301
 UBDSV06 SAVING              RIV IN MODEL GWF_1            PACKAGE GWF_1           CONNECTED TO MODEL GWF_1            PACKAGE RIV_SYS1         ON UNIT   1018 AT TIME STEP      1, STRESS PERIOD    301
 UBDSV06 SAVING              RIV IN MODEL GWF_1            PACKAGE GWF_1           CONNECTED TO MODEL GWF_1            PACKAGE RIV_SYS2         ON UNIT   1018 AT TIME STEP      1, STRESS PERIOD    301
 UBDSV06 SAVING              RCH IN MODEL GWF_1            PACKAGE GWF_1           CONNECTED TO MODEL GWF_1            PACKAGE RCH_MSW          ON UNIT   1018 AT TIME STEP      1, STRESS PERIOD    301

 HEAD WILL BE SAVED ON UNIT 1017 AT END OF TIME STEP    1, STRESS PERIOD  301


  VOLUME BUDGET FOR ENTIRE MODEL AT END OF TIME STEP    1, STRESS PERIOD 301
  ---------------------------------------------------------------------------------------------------

     CUMULATIVE VOLUME      L**3       RATES FOR THIS TIME STEP      L**3/T          PACKAGE NAME    
     ------------------                 ------------------------                     ----------------

           IN:                                      IN:
           ---                                      ---
              STO-SS =      221758.9716                STO-SS =           0.6769     STORAGE                          
                 DRN =           0.0000                   DRN =           0.0000     DRN_SYS1                         
                 RIV =      247221.3509                   RIV =         807.6783     RIV_SYS1                         
                 RIV =           0.0000                   RIV =           0.0000     RIV_SYS2                         
                 RCH =      355657.9903                   RCH =        1646.1473     RCH_MSW                          

            TOTAL IN =      824638.3127              TOTAL IN =        2454.5025

          OUT:                                     OUT:
          ----                                     ----
              STO-SS =       35540.9753                STO-SS =         220.2687     STORAGE                          
                 DRN =       15326.7697                   DRN =          42.3526     DRN_SYS1                         
                 RIV =      723743.7675                   RIV =        2069.8462     RIV_SYS1                         
                 RIV =       43538.4045                   RIV =         122.0328     RIV_SYS2                         
                 RCH =        6488.4405                   RCH =           0.0000     RCH_MSW                          

           TOTAL OUT =      824638.3574             TOTAL OUT =        2454.5002

            IN - OUT =      -4.4700E-02              IN - OUT =       2.2967E-03

 PERCENT DISCREPANCY =          -0.00     PERCENT DISCREPANCY =           0.00




         TIME SUMMARY AT END OF TIME STEP    1 IN STRESS PERIOD  301
                    SECONDS     MINUTES      HOURS       DAYS        YEARS
                    -----------------------------------------------------------
   TIME STEP LENGTH  86400.      1440.0      24.000      1.0000     2.73785E-03
 STRESS PERIOD TIME  86400.      1440.0      24.000      1.0000     2.73785E-03
         TOTAL TIME 2.60064E+07 4.33440E+05  7224.0      301.00     0.82409    


end timestep


start timestep kper="302" kstp="1" mode="normal"

 #Stressperiod Save Options

 BEGIN READING OUTPUT CONTROL FOR STRESS PERIOD 302
      ALL TIME STEPS WILL BE SAVED
      ALL TIME STEPS WILL BE SAVED

 END READING OUTPUT CONTROL FOR STRESS PERIOD 302


 PROCESSING STORAGE PERIOD DATA
 END PROCESSING STORAGE PERIOD DATA


 STRESS PERIOD 302 IS TRANSIENT


 REUSING DRNS FROM LAST STRESS PERIOD

 REUSING RIVS FROM LAST STRESS PERIOD

 REUSING RIVS FROM LAST STRESS PERIOD

 REUSING RCHS FROM LAST STRESS PERIOD
 UBDSV06 SAVING              DRN IN MODEL GWF_1            PACKAGE GWF_1           CONNECTED TO MODEL GWF_1            PACKAGE DRN_SYS1         ON UNIT   1018 AT TIME STEP      1, STRESS PERIOD    302
 UBDSV06 SAVING              RIV IN MODEL GWF_1            PACKAGE GWF_1           CONNECTED TO MODEL GWF_1            PACKAGE RIV_SYS1         ON UNIT   1018 AT TIME STEP      1, STRESS PERIOD    302
 UBDSV06 SAVING              RIV IN MODEL GWF_1            PACKAGE GWF_1           CONNECTED TO MODEL GWF_1            PACKAGE RIV_SYS2         ON UNIT   1018 AT TIME STEP      1, STRESS PERIOD    302
 UBDSV06 SAVING              RCH IN MODEL GWF_1            PACKAGE GWF_1           CONNECTED TO MODEL GWF_1            PACKAGE RCH_MSW          ON UNIT   1018 AT TIME STEP      1, STRESS PERIOD    302

 HEAD WILL BE SAVED ON UNIT 1017 AT END OF TIME STEP    1, STRESS PERIOD  302


  VOLUME BUDGET FOR ENTIRE MODEL AT END OF TIME STEP    1, STRESS PERIOD 302
  ---------------------------------------------------------------------------------------------------

     CUMULATIVE VOLUME      L**3       RATES FOR THIS TIME STEP      L**3/T          PACKAGE NAME    
     ------------------                 ------------------------                     ----------------

           IN:                                      IN:
           ---                                      ---
              STO-SS =      221758.9716                STO-SS =           0.0000     STORAGE                          
                 DRN =           0.0000                   DRN =           0.0000     DRN_SYS1                         
                 RIV =      248003.1138                   RIV =         781.7629     RIV_SYS1                         
                 RIV =           0.0000                   RIV =           0.0000     RIV_SYS2                         
                 RCH =      357595.4113                   RCH =        1937.4211     RCH_MSW                          

            TOTAL IN =      827357.4967              TOTAL IN =        2719.1840

          OUT:                                     OUT:
          ----                                     ----
              STO-SS =       35964.5623                STO-SS =         423.5871     STORAGE                          
                 DRN =       15369.6929                   DRN =          42.9232     DRN_SYS1                         
                 RIV =      725872.6578                   RIV =        2128.8903     RIV_SYS1                         
                 RIV =       43662.1863                   RIV =         123.7818     RIV_SYS2                         
                 RCH =        6488.4405                   RCH =           0.0000     RCH_MSW                          

           TOTAL OUT =      827357.5399             TOTAL OUT =        2719.1825

            IN - OUT =      -4.3199E-02              IN - OUT =       1.5008E-03

 PERCENT DISCREPANCY =          -0.00     PERCENT DISCREPANCY =           0.00




         TIME SUMMARY AT END OF TIME STEP    1 IN STRESS PERIOD  302
                    SECONDS     MINUTES      HOURS       DAYS        YEARS
                    -----------------------------------------------------------
   TIME STEP LENGTH  86400.      1440.0      24.000      1.0000     2.73785E-03
 STRESS PERIOD TIME  86400.      1440.0      24.000      1.0000     2.73785E-03
         TOTAL TIME 2.60928E+07 4.34880E+05  7248.0      302.00     0.82683    


end timestep


start timestep kper="303" kstp="1" mode="normal"

 #Stressperiod Save Options

 BEGIN READING OUTPUT CONTROL FOR STRESS PERIOD 303
      ALL TIME STEPS WILL BE SAVED
      ALL TIME STEPS WILL BE SAVED

 END READING OUTPUT CONTROL FOR STRESS PERIOD 303


 PROCESSING STORAGE PERIOD DATA
 END PROCESSING STORAGE PERIOD DATA


 STRESS PERIOD 303 IS TRANSIENT


 REUSING DRNS FROM LAST STRESS PERIOD

 REUSING RIVS FROM LAST STRESS PERIOD

 REUSING RIVS FROM LAST STRESS PERIOD

 REUSING RCHS FROM LAST STRESS PERIOD
 UBDSV06 SAVING              DRN IN MODEL GWF_1            PACKAGE GWF_1           CONNECTED TO MODEL GWF_1            PACKAGE DRN_SYS1         ON UNIT   1018 AT TIME STEP      1, STRESS PERIOD    303
 UBDSV06 SAVING              RIV IN MODEL GWF_1            PACKAGE GWF_1           CONNECTED TO MODEL GWF_1            PACKAGE RIV_SYS1         ON UNIT   1018 AT TIME STEP      1, STRESS PERIOD    303
 UBDSV06 SAVING              RIV IN MODEL GWF_1            PACKAGE GWF_1           CONNECTED TO MODEL GWF_1            PACKAGE RIV_SYS2         ON UNIT   1018 AT TIME STEP      1, STRESS PERIOD    303
 UBDSV06 SAVING              RCH IN MODEL GWF_1            PACKAGE GWF_1           CONNECTED TO MODEL GWF_1            PACKAGE RCH_MSW          ON UNIT   1018 AT TIME STEP      1, STRESS PERIOD    303

 HEAD WILL BE SAVED ON UNIT 1017 AT END OF TIME STEP    1, STRESS PERIOD  303


  VOLUME BUDGET FOR ENTIRE MODEL AT END OF TIME STEP    1, STRESS PERIOD 303
  ---------------------------------------------------------------------------------------------------

     CUMULATIVE VOLUME      L**3       RATES FOR THIS TIME STEP      L**3/T          PACKAGE NAME    
     ------------------                 ------------------------                     ----------------

           IN:                                      IN:
           ---                                      ---
              STO-SS =      221758.9716                STO-SS =           0.0000     STORAGE                          
                 DRN =           0.0000                   DRN =           0.0000     DRN_SYS1                         
                 RIV =      248625.6476                   RIV =         622.5339     RIV_SYS1                         
                 RIV =           0.0000                   RIV =           0.0000     RIV_SYS2                         
                 RCH =      362152.6673                   RCH =        4557.2560     RCH_MSW                          

            TOTAL IN =      832537.2865              TOTAL IN =        5179.7898

          OUT:                                     OUT:
          ----                                     ----
              STO-SS =       38418.3806                STO-SS =        2453.8183     STORAGE                          
                 DRN =       15416.5649                   DRN =          46.8720     DRN_SYS1                         
                 RIV =      728416.5079                   RIV =        2543.8501     RIV_SYS1                         
                 RIV =       43797.4362                   RIV =         135.2499     RIV_SYS2                         
                 RCH =        6488.4405                   RCH =           0.0000     RCH_MSW                          

           TOTAL OUT =      832537.3301             TOTAL OUT =        5179.7902

            IN - OUT =      -4.3591E-02              IN - OUT =      -3.9175E-04

 PERCENT DISCREPANCY =          -0.00     PERCENT DISCREPANCY =          -0.00




         TIME SUMMARY AT END OF TIME STEP    1 IN STRESS PERIOD  303
                    SECONDS     MINUTES      HOURS       DAYS        YEARS
                    -----------------------------------------------------------
   TIME STEP LENGTH  86400.      1440.0      24.000      1.0000     2.73785E-03
 STRESS PERIOD TIME  86400.      1440.0      24.000      1.0000     2.73785E-03
         TOTAL TIME 2.61792E+07 4.36320E+05  7272.0      303.00     0.82957    


end timestep


start timestep kper="304" kstp="1" mode="normal"

 #Stressperiod Save Options

 BEGIN READING OUTPUT CONTROL FOR STRESS PERIOD 304
      ALL TIME STEPS WILL BE SAVED
      ALL TIME STEPS WILL BE SAVED

 END READING OUTPUT CONTROL FOR STRESS PERIOD 304


 PROCESSING STORAGE PERIOD DATA
 END PROCESSING STORAGE PERIOD DATA


 STRESS PERIOD 304 IS TRANSIENT


 REUSING DRNS FROM LAST STRESS PERIOD

 REUSING RIVS FROM LAST STRESS PERIOD

 REUSING RIVS FROM LAST STRESS PERIOD

 REUSING RCHS FROM LAST STRESS PERIOD
 UBDSV06 SAVING              DRN IN MODEL GWF_1            PACKAGE GWF_1           CONNECTED TO MODEL GWF_1            PACKAGE DRN_SYS1         ON UNIT   1018 AT TIME STEP      1, STRESS PERIOD    304
 UBDSV06 SAVING              RIV IN MODEL GWF_1            PACKAGE GWF_1           CONNECTED TO MODEL GWF_1            PACKAGE RIV_SYS1         ON UNIT   1018 AT TIME STEP      1, STRESS PERIOD    304
 UBDSV06 SAVING              RIV IN MODEL GWF_1            PACKAGE GWF_1           CONNECTED TO MODEL GWF_1            PACKAGE RIV_SYS2         ON UNIT   1018 AT TIME STEP      1, STRESS PERIOD    304
 UBDSV06 SAVING              RCH IN MODEL GWF_1            PACKAGE GWF_1           CONNECTED TO MODEL GWF_1            PACKAGE RCH_MSW          ON UNIT   1018 AT TIME STEP      1, STRESS PERIOD    304

 HEAD WILL BE SAVED ON UNIT 1017 AT END OF TIME STEP    1, STRESS PERIOD  304


  VOLUME BUDGET FOR ENTIRE MODEL AT END OF TIME STEP    1, STRESS PERIOD 304
  ---------------------------------------------------------------------------------------------------

     CUMULATIVE VOLUME      L**3       RATES FOR THIS TIME STEP      L**3/T          PACKAGE NAME    
     ------------------                 ------------------------                     ----------------

           IN:                                      IN:
           ---                                      ---
              STO-SS =      221758.9716                STO-SS =           0.0000     STORAGE                          
                 DRN =           0.0000                   DRN =           0.0000     DRN_SYS1                         
                 RIV =      249064.0980                   RIV =         438.4503     RIV_SYS1                         
                 RIV =           0.0000                   RIV =           0.0000     RIV_SYS2                         
                 RCH =      368852.3920                   RCH =        6699.7247     RCH_MSW                          

            TOTAL IN =      839675.4616              TOTAL IN =        7138.1751

          OUT:                                     OUT:
          ----                                     ----
              STO-SS =       42270.1636                STO-SS =        3851.7829     STORAGE                          
                 DRN =       15470.6988                   DRN =          54.1340     DRN_SYS1                         
                 RIV =      731492.7803                   RIV =        3076.2724     RIV_SYS1                         
                 RIV =       43953.4221                   RIV =         155.9859     RIV_SYS2                         
                 RCH =        6488.4405                   RCH =           0.0000     RCH_MSW                          

           TOTAL OUT =      839675.5053             TOTAL OUT =        7138.1752

            IN - OUT =      -4.3711E-02              IN - OUT =      -1.2004E-04

 PERCENT DISCREPANCY =          -0.00     PERCENT DISCREPANCY =          -0.00




         TIME SUMMARY AT END OF TIME STEP    1 IN STRESS PERIOD  304
                    SECONDS     MINUTES      HOURS       DAYS        YEARS
                    -----------------------------------------------------------
   TIME STEP LENGTH  86400.      1440.0      24.000      1.0000     2.73785E-03
 STRESS PERIOD TIME  86400.      1440.0      24.000      1.0000     2.73785E-03
         TOTAL TIME 2.62656E+07 4.37760E+05  7296.0      304.00     0.83231    


end timestep


start timestep kper="305" kstp="1" mode="normal"

 #Stressperiod Save Options

 BEGIN READING OUTPUT CONTROL FOR STRESS PERIOD 305
      ALL TIME STEPS WILL BE SAVED
      ALL TIME STEPS WILL BE SAVED

 END READING OUTPUT CONTROL FOR STRESS PERIOD 305


 PROCESSING STORAGE PERIOD DATA
 END PROCESSING STORAGE PERIOD DATA


 STRESS PERIOD 305 IS TRANSIENT


 REUSING DRNS FROM LAST STRESS PERIOD

 REUSING RIVS FROM LAST STRESS PERIOD

 REUSING RIVS FROM LAST STRESS PERIOD

 REUSING RCHS FROM LAST STRESS PERIOD
 UBDSV06 SAVING              DRN IN MODEL GWF_1            PACKAGE GWF_1           CONNECTED TO MODEL GWF_1            PACKAGE DRN_SYS1         ON UNIT   1018 AT TIME STEP      1, STRESS PERIOD    305
 UBDSV06 SAVING              RIV IN MODEL GWF_1            PACKAGE GWF_1           CONNECTED TO MODEL GWF_1            PACKAGE RIV_SYS1         ON UNIT   1018 AT TIME STEP      1, STRESS PERIOD    305
 UBDSV06 SAVING              RIV IN MODEL GWF_1            PACKAGE GWF_1           CONNECTED TO MODEL GWF_1            PACKAGE RIV_SYS2         ON UNIT   1018 AT TIME STEP      1, STRESS PERIOD    305
 UBDSV06 SAVING              RCH IN MODEL GWF_1            PACKAGE GWF_1           CONNECTED TO MODEL GWF_1            PACKAGE RCH_MSW          ON UNIT   1018 AT TIME STEP      1, STRESS PERIOD    305

 HEAD WILL BE SAVED ON UNIT 1017 AT END OF TIME STEP    1, STRESS PERIOD  305


  VOLUME BUDGET FOR ENTIRE MODEL AT END OF TIME STEP    1, STRESS PERIOD 305
  ---------------------------------------------------------------------------------------------------

     CUMULATIVE VOLUME      L**3       RATES FOR THIS TIME STEP      L**3/T          PACKAGE NAME    
     ------------------                 ------------------------                     ----------------

           IN:                                      IN:
           ---                                      ---
              STO-SS =      221759.3415                STO-SS =           0.3699     STORAGE                          
                 DRN =           0.0000                   DRN =           0.0000     DRN_SYS1                         
                 RIV =      249429.2731                   RIV =         365.1751     RIV_SYS1                         
                 RIV =           0.0000                   RIV =           0.0000     RIV_SYS2                         
                 RCH =      374855.5750                   RCH =        6003.1830     RCH_MSW                          

            TOTAL IN =      846044.1896              TOTAL IN =        6368.7281

          OUT:                                     OUT:
          ----                                     ----
              STO-SS =       45141.6295                STO-SS =        2871.4660     STORAGE                          
                 DRN =       15531.0394                   DRN =          60.3405     DRN_SYS1                         
                 RIV =      734756.4572                   RIV =        3263.6769     RIV_SYS1                         
                 RIV =       44126.6677                   RIV =         173.2456     RIV_SYS2                         
                 RCH =        6488.4405                   RCH =           0.0000     RCH_MSW                          

           TOTAL OUT =      846044.2342             TOTAL OUT =        6368.7290

            IN - OUT =      -4.4598E-02              IN - OUT =      -8.8766E-04

 PERCENT DISCREPANCY =          -0.00     PERCENT DISCREPANCY =          -0.00




         TIME SUMMARY AT END OF TIME STEP    1 IN STRESS PERIOD  305
                    SECONDS     MINUTES      HOURS       DAYS        YEARS
                    -----------------------------------------------------------
   TIME STEP LENGTH  86400.      1440.0      24.000      1.0000     2.73785E-03
 STRESS PERIOD TIME  86400.      1440.0      24.000      1.0000     2.73785E-03
         TOTAL TIME 2.63520E+07 4.39200E+05  7320.0      305.00     0.83504    


end timestep


start timestep kper="306" kstp="1" mode="normal"

 #Stressperiod Save Options

 BEGIN READING OUTPUT CONTROL FOR STRESS PERIOD 306
      ALL TIME STEPS WILL BE SAVED
      ALL TIME STEPS WILL BE SAVED

 END READING OUTPUT CONTROL FOR STRESS PERIOD 306


 PROCESSING STORAGE PERIOD DATA
 END PROCESSING STORAGE PERIOD DATA


 STRESS PERIOD 306 IS TRANSIENT


 REUSING DRNS FROM LAST STRESS PERIOD

 REUSING RIVS FROM LAST STRESS PERIOD

 REUSING RIVS FROM LAST STRESS PERIOD

 REUSING RCHS FROM LAST STRESS PERIOD
 UBDSV06 SAVING              DRN IN MODEL GWF_1            PACKAGE GWF_1           CONNECTED TO MODEL GWF_1            PACKAGE DRN_SYS1         ON UNIT   1018 AT TIME STEP      1, STRESS PERIOD    306
 UBDSV06 SAVING              RIV IN MODEL GWF_1            PACKAGE GWF_1           CONNECTED TO MODEL GWF_1            PACKAGE RIV_SYS1         ON UNIT   1018 AT TIME STEP      1, STRESS PERIOD    306
 UBDSV06 SAVING              RIV IN MODEL GWF_1            PACKAGE GWF_1           CONNECTED TO MODEL GWF_1            PACKAGE RIV_SYS2         ON UNIT   1018 AT TIME STEP      1, STRESS PERIOD    306
 UBDSV06 SAVING              RCH IN MODEL GWF_1            PACKAGE GWF_1           CONNECTED TO MODEL GWF_1            PACKAGE RCH_MSW          ON UNIT   1018 AT TIME STEP      1, STRESS PERIOD    306

 HEAD WILL BE SAVED ON UNIT 1017 AT END OF TIME STEP    1, STRESS PERIOD  306


  VOLUME BUDGET FOR ENTIRE MODEL AT END OF TIME STEP    1, STRESS PERIOD 306
  ---------------------------------------------------------------------------------------------------

     CUMULATIVE VOLUME      L**3       RATES FOR THIS TIME STEP      L**3/T          PACKAGE NAME    
     ------------------                 ------------------------                     ----------------

           IN:                                      IN:
           ---                                      ---
              STO-SS =      221781.8320                STO-SS =          22.4905     STORAGE                          
                 DRN =           0.0000                   DRN =           0.0000     DRN_SYS1                         
                 RIV =      249775.4950                   RIV =         346.2219     RIV_SYS1                         
                 RIV =           0.0000                   RIV =           0.0000     RIV_SYS2                         
                 RCH =      379980.6251                   RCH =        5125.0501     RCH_MSW                          

            TOTAL IN =      851537.9521              TOTAL IN =        5493.7625

          OUT:                                     OUT:
          ----                                     ----
              STO-SS =       47093.7840                STO-SS =        1952.1545     STORAGE                          
                 DRN =       15595.9522                   DRN =          64.9128     DRN_SYS1                         
                 RIV =      738047.6335                   RIV =        3291.1763     RIV_SYS1                         
                 RIV =       44312.1882                   RIV =         185.5205     RIV_SYS2                         
                 RCH =        6488.4405                   RCH =           0.0000     RCH_MSW                          

           TOTAL OUT =      851537.9984             TOTAL OUT =        5493.7641

            IN - OUT =      -4.6252E-02              IN - OUT =      -1.6539E-03

 PERCENT DISCREPANCY =          -0.00     PERCENT DISCREPANCY =          -0.00




         TIME SUMMARY AT END OF TIME STEP    1 IN STRESS PERIOD  306
                    SECONDS     MINUTES      HOURS       DAYS        YEARS
                    -----------------------------------------------------------
   TIME STEP LENGTH  86400.      1440.0      24.000      1.0000     2.73785E-03
 STRESS PERIOD TIME  86400.      1440.0      24.000      1.0000     2.73785E-03
         TOTAL TIME 2.64384E+07 4.40640E+05  7344.0      306.00     0.83778    


end timestep


start timestep kper="307" kstp="1" mode="normal"

 #Stressperiod Save Options

 BEGIN READING OUTPUT CONTROL FOR STRESS PERIOD 307
      ALL TIME STEPS WILL BE SAVED
      ALL TIME STEPS WILL BE SAVED

 END READING OUTPUT CONTROL FOR STRESS PERIOD 307


 PROCESSING STORAGE PERIOD DATA
 END PROCESSING STORAGE PERIOD DATA


 STRESS PERIOD 307 IS TRANSIENT


 REUSING DRNS FROM LAST STRESS PERIOD

 REUSING RIVS FROM LAST STRESS PERIOD

 REUSING RIVS FROM LAST STRESS PERIOD

 REUSING RCHS FROM LAST STRESS PERIOD
 UBDSV06 SAVING              DRN IN MODEL GWF_1            PACKAGE GWF_1           CONNECTED TO MODEL GWF_1            PACKAGE DRN_SYS1         ON UNIT   1018 AT TIME STEP      1, STRESS PERIOD    307
 UBDSV06 SAVING              RIV IN MODEL GWF_1            PACKAGE GWF_1           CONNECTED TO MODEL GWF_1            PACKAGE RIV_SYS1         ON UNIT   1018 AT TIME STEP      1, STRESS PERIOD    307
 UBDSV06 SAVING              RIV IN MODEL GWF_1            PACKAGE GWF_1           CONNECTED TO MODEL GWF_1            PACKAGE RIV_SYS2         ON UNIT   1018 AT TIME STEP      1, STRESS PERIOD    307
 UBDSV06 SAVING              RCH IN MODEL GWF_1            PACKAGE GWF_1           CONNECTED TO MODEL GWF_1            PACKAGE RCH_MSW          ON UNIT   1018 AT TIME STEP      1, STRESS PERIOD    307

 HEAD WILL BE SAVED ON UNIT 1017 AT END OF TIME STEP    1, STRESS PERIOD  307


  VOLUME BUDGET FOR ENTIRE MODEL AT END OF TIME STEP    1, STRESS PERIOD 307
  ---------------------------------------------------------------------------------------------------

     CUMULATIVE VOLUME      L**3       RATES FOR THIS TIME STEP      L**3/T          PACKAGE NAME    
     ------------------                 ------------------------                     ----------------

           IN:                                      IN:
           ---                                      ---
              STO-SS =      221845.6357                STO-SS =          63.8036     STORAGE                          
                 DRN =           0.0000                   DRN =           0.0000     DRN_SYS1                         
                 RIV =      250127.3586                   RIV =         351.8636     RIV_SYS1                         
                 RIV =           0.0000                   RIV =           0.0000     RIV_SYS2                         
                 RCH =      384372.8197                   RCH =        4392.1947     RCH_MSW                          

            TOTAL IN =      856345.8140              TOTAL IN =        4807.8619

          OUT:                                     OUT:
          ----                                     ----
              STO-SS =       48383.7413                STO-SS =        1289.9573     STORAGE                          
                 DRN =       15663.9838                   DRN =          68.0316     DRN_SYS1                         
                 RIV =      741303.9837                   RIV =        3256.3502     RIV_SYS1                         
                 RIV =       44505.7065                   RIV =         193.5183     RIV_SYS2                         
                 RCH =        6488.4405                   RCH =           0.0000     RCH_MSW                          

           TOTAL OUT =      856345.8558             TOTAL OUT =        4807.8574

            IN - OUT =      -4.1790E-02              IN - OUT =       4.4626E-03

 PERCENT DISCREPANCY =          -0.00     PERCENT DISCREPANCY =           0.00




         TIME SUMMARY AT END OF TIME STEP    1 IN STRESS PERIOD  307
                    SECONDS     MINUTES      HOURS       DAYS        YEARS
                    -----------------------------------------------------------
   TIME STEP LENGTH  86400.      1440.0      24.000      1.0000     2.73785E-03
 STRESS PERIOD TIME  86400.      1440.0      24.000      1.0000     2.73785E-03
         TOTAL TIME 2.65248E+07 4.42080E+05  7368.0      307.00     0.84052    


end timestep


start timestep kper="308" kstp="1" mode="normal"

 #Stressperiod Save Options

 BEGIN READING OUTPUT CONTROL FOR STRESS PERIOD 308
      ALL TIME STEPS WILL BE SAVED
      ALL TIME STEPS WILL BE SAVED

 END READING OUTPUT CONTROL FOR STRESS PERIOD 308


 PROCESSING STORAGE PERIOD DATA
 END PROCESSING STORAGE PERIOD DATA


 STRESS PERIOD 308 IS TRANSIENT


 REUSING DRNS FROM LAST STRESS PERIOD

 REUSING RIVS FROM LAST STRESS PERIOD

 REUSING RIVS FROM LAST STRESS PERIOD

 REUSING RCHS FROM LAST STRESS PERIOD
 UBDSV06 SAVING              DRN IN MODEL GWF_1            PACKAGE GWF_1           CONNECTED TO MODEL GWF_1            PACKAGE DRN_SYS1         ON UNIT   1018 AT TIME STEP      1, STRESS PERIOD    308
 UBDSV06 SAVING              RIV IN MODEL GWF_1            PACKAGE GWF_1           CONNECTED TO MODEL GWF_1            PACKAGE RIV_SYS1         ON UNIT   1018 AT TIME STEP      1, STRESS PERIOD    308
 UBDSV06 SAVING              RIV IN MODEL GWF_1            PACKAGE GWF_1           CONNECTED TO MODEL GWF_1            PACKAGE RIV_SYS2         ON UNIT   1018 AT TIME STEP      1, STRESS PERIOD    308
 UBDSV06 SAVING              RCH IN MODEL GWF_1            PACKAGE GWF_1           CONNECTED TO MODEL GWF_1            PACKAGE RCH_MSW          ON UNIT   1018 AT TIME STEP      1, STRESS PERIOD    308

 HEAD WILL BE SAVED ON UNIT 1017 AT END OF TIME STEP    1, STRESS PERIOD  308


  VOLUME BUDGET FOR ENTIRE MODEL AT END OF TIME STEP    1, STRESS PERIOD 308
  ---------------------------------------------------------------------------------------------------

     CUMULATIVE VOLUME      L**3       RATES FOR THIS TIME STEP      L**3/T          PACKAGE NAME    
     ------------------                 ------------------------                     ----------------

           IN:                                      IN:
           ---                                      ---
              STO-SS =      221954.5244                STO-SS =         108.8887     STORAGE                          
                 DRN =           0.0000                   DRN =           0.0000     DRN_SYS1                         
                 RIV =      250495.8466                   RIV =         368.4880     RIV_SYS1                         
                 RIV =           0.0000                   RIV =           0.0000     RIV_SYS2                         
                 RCH =      388183.8607                   RCH =        3811.0409     RCH_MSW                          

            TOTAL IN =      860634.2316              TOTAL IN =        4288.4177

          OUT:                                     OUT:
          ----                                     ----
              STO-SS =       49206.4465                STO-SS =         822.7052     STORAGE                          
                 DRN =       15734.0225                   DRN =          70.0387     DRN_SYS1                         
                 RIV =      744501.3352                   RIV =        3197.3516     RIV_SYS1                         
                 RIV =       44704.0289                   RIV =         198.3224     RIV_SYS2                         
                 RCH =        6488.4405                   RCH =           0.0000     RCH_MSW                          

           TOTAL OUT =      860634.2737             TOTAL OUT =        4288.4179

            IN - OUT =      -4.2024E-02              IN - OUT =      -2.3450E-04

 PERCENT DISCREPANCY =          -0.00     PERCENT DISCREPANCY =          -0.00




         TIME SUMMARY AT END OF TIME STEP    1 IN STRESS PERIOD  308
                    SECONDS     MINUTES      HOURS       DAYS        YEARS
                    -----------------------------------------------------------
   TIME STEP LENGTH  86400.      1440.0      24.000      1.0000     2.73785E-03
 STRESS PERIOD TIME  86400.      1440.0      24.000      1.0000     2.73785E-03
         TOTAL TIME 2.66112E+07 4.43520E+05  7392.0      308.00     0.84326    


end timestep


start timestep kper="309" kstp="1" mode="normal"

 #Stressperiod Save Options

 BEGIN READING OUTPUT CONTROL FOR STRESS PERIOD 309
      ALL TIME STEPS WILL BE SAVED
      ALL TIME STEPS WILL BE SAVED

 END READING OUTPUT CONTROL FOR STRESS PERIOD 309


 PROCESSING STORAGE PERIOD DATA
 END PROCESSING STORAGE PERIOD DATA


 STRESS PERIOD 309 IS TRANSIENT


 REUSING DRNS FROM LAST STRESS PERIOD

 REUSING RIVS FROM LAST STRESS PERIOD

 REUSING RIVS FROM LAST STRESS PERIOD

 REUSING RCHS FROM LAST STRESS PERIOD
 UBDSV06 SAVING              DRN IN MODEL GWF_1            PACKAGE GWF_1           CONNECTED TO MODEL GWF_1            PACKAGE DRN_SYS1         ON UNIT   1018 AT TIME STEP      1, STRESS PERIOD    309
 UBDSV06 SAVING              RIV IN MODEL GWF_1            PACKAGE GWF_1           CONNECTED TO MODEL GWF_1            PACKAGE RIV_SYS1         ON UNIT   1018 AT TIME STEP      1, STRESS PERIOD    309
 UBDSV06 SAVING              RIV IN MODEL GWF_1            PACKAGE GWF_1           CONNECTED TO MODEL GWF_1            PACKAGE RIV_SYS2         ON UNIT   1018 AT TIME STEP      1, STRESS PERIOD    309
 UBDSV06 SAVING              RCH IN MODEL GWF_1            PACKAGE GWF_1           CONNECTED TO MODEL GWF_1            PACKAGE RCH_MSW          ON UNIT   1018 AT TIME STEP      1, STRESS PERIOD    309

 HEAD WILL BE SAVED ON UNIT 1017 AT END OF TIME STEP    1, STRESS PERIOD  309


  VOLUME BUDGET FOR ENTIRE MODEL AT END OF TIME STEP    1, STRESS PERIOD 309
  ---------------------------------------------------------------------------------------------------

     CUMULATIVE VOLUME      L**3       RATES FOR THIS TIME STEP      L**3/T          PACKAGE NAME    
     ------------------                 ------------------------                     ----------------

           IN:                                      IN:
           ---                                      ---
              STO-SS =      222114.6623                STO-SS =         160.1379     STORAGE                          
                 DRN =           0.0000                   DRN =           0.0000     DRN_SYS1                         
                 RIV =      250885.9710                   RIV =         390.1244     RIV_SYS1                         
                 RIV =           0.0000                   RIV =           0.0000     RIV_SYS2                         
                 RCH =      391527.6647                   RCH =        3343.8040     RCH_MSW                          

            TOTAL IN =      864528.2980              TOTAL IN =        3894.0664

          OUT:                                     OUT:
          ----                                     ----
              STO-SS =       49698.3728                STO-SS =         491.9263     STORAGE                          
                 DRN =       15805.1939                   DRN =          71.1714     DRN_SYS1                         
                 RIV =      747631.5546                   RIV =        3130.2193     RIV_SYS1                         
                 RIV =       44904.7272                   RIV =         200.6983     RIV_SYS2                         
                 RCH =        6488.4405                   RCH =           0.0000     RCH_MSW                          

           TOTAL OUT =      864528.2889             TOTAL OUT =        3894.0152

            IN - OUT =       9.0834E-03              IN - OUT =       5.1108E-02

 PERCENT DISCREPANCY =           0.00     PERCENT DISCREPANCY =           0.00




         TIME SUMMARY AT END OF TIME STEP    1 IN STRESS PERIOD  309
                    SECONDS     MINUTES      HOURS       DAYS        YEARS
                    -----------------------------------------------------------
   TIME STEP LENGTH  86400.      1440.0      24.000      1.0000     2.73785E-03
 STRESS PERIOD TIME  86400.      1440.0      24.000      1.0000     2.73785E-03
         TOTAL TIME 2.66976E+07 4.44960E+05  7416.0      309.00     0.84600    


end timestep


start timestep kper="310" kstp="1" mode="normal"

 #Stressperiod Save Options

 BEGIN READING OUTPUT CONTROL FOR STRESS PERIOD 310
      ALL TIME STEPS WILL BE SAVED
      ALL TIME STEPS WILL BE SAVED

 END READING OUTPUT CONTROL FOR STRESS PERIOD 310


 PROCESSING STORAGE PERIOD DATA
 END PROCESSING STORAGE PERIOD DATA


 STRESS PERIOD 310 IS TRANSIENT


 REUSING DRNS FROM LAST STRESS PERIOD

 REUSING RIVS FROM LAST STRESS PERIOD

 REUSING RIVS FROM LAST STRESS PERIOD

 REUSING RCHS FROM LAST STRESS PERIOD
 UBDSV06 SAVING              DRN IN MODEL GWF_1            PACKAGE GWF_1           CONNECTED TO MODEL GWF_1            PACKAGE DRN_SYS1         ON UNIT   1018 AT TIME STEP      1, STRESS PERIOD    310
 UBDSV06 SAVING              RIV IN MODEL GWF_1            PACKAGE GWF_1           CONNECTED TO MODEL GWF_1            PACKAGE RIV_SYS1         ON UNIT   1018 AT TIME STEP      1, STRESS PERIOD    310
 UBDSV06 SAVING              RIV IN MODEL GWF_1            PACKAGE GWF_1           CONNECTED TO MODEL GWF_1            PACKAGE RIV_SYS2         ON UNIT   1018 AT TIME STEP      1, STRESS PERIOD    310
 UBDSV06 SAVING              RCH IN MODEL GWF_1            PACKAGE GWF_1           CONNECTED TO MODEL GWF_1            PACKAGE RCH_MSW          ON UNIT   1018 AT TIME STEP      1, STRESS PERIOD    310

 HEAD WILL BE SAVED ON UNIT 1017 AT END OF TIME STEP    1, STRESS PERIOD  310


  VOLUME BUDGET FOR ENTIRE MODEL AT END OF TIME STEP    1, STRESS PERIOD 310
  ---------------------------------------------------------------------------------------------------

     CUMULATIVE VOLUME      L**3       RATES FOR THIS TIME STEP      L**3/T          PACKAGE NAME    
     ------------------                 ------------------------                     ----------------

           IN:                                      IN:
           ---                                      ---
              STO-SS =      222334.8501                STO-SS =         220.1878     STORAGE                          
                 DRN =           0.0000                   DRN =           0.0000     DRN_SYS1                         
                 RIV =      251299.4504                   RIV =         413.4793     RIV_SYS1                         
                 RIV =           0.0000                   RIV =           0.0000     RIV_SYS2                         
                 RCH =      394509.2738                   RCH =        2981.6091     RCH_MSW                          

            TOTAL IN =      868143.5742              TOTAL IN =        3615.2762

          OUT:                                     OUT:
          ----                                     ----
              STO-SS =       49977.9340                STO-SS =         279.5612     STORAGE                          
                 DRN =       15876.8792                   DRN =          71.6853     DRN_SYS1                         
                 RIV =      750694.1308                   RIV =        3062.5762     RIV_SYS1                         
                 RIV =       45106.1406                   RIV =         201.4133     RIV_SYS2                         
                 RCH =        6488.4405                   RCH =           0.0000     RCH_MSW                          

           TOTAL OUT =      868143.5250             TOTAL OUT =        3615.2361

            IN - OUT =       4.9238E-02              IN - OUT =       4.0154E-02

 PERCENT DISCREPANCY =           0.00     PERCENT DISCREPANCY =           0.00




         TIME SUMMARY AT END OF TIME STEP    1 IN STRESS PERIOD  310
                    SECONDS     MINUTES      HOURS       DAYS        YEARS
                    -----------------------------------------------------------
   TIME STEP LENGTH  86400.      1440.0      24.000      1.0000     2.73785E-03
 STRESS PERIOD TIME  86400.      1440.0      24.000      1.0000     2.73785E-03
         TOTAL TIME 2.67840E+07 4.46400E+05  7440.0      310.00     0.84873    


end timestep


start timestep kper="311" kstp="1" mode="normal"

 #Stressperiod Save Options

 BEGIN READING OUTPUT CONTROL FOR STRESS PERIOD 311
      ALL TIME STEPS WILL BE SAVED
      ALL TIME STEPS WILL BE SAVED

 END READING OUTPUT CONTROL FOR STRESS PERIOD 311


 PROCESSING STORAGE PERIOD DATA
 END PROCESSING STORAGE PERIOD DATA


 STRESS PERIOD 311 IS TRANSIENT


 REUSING DRNS FROM LAST STRESS PERIOD

 REUSING RIVS FROM LAST STRESS PERIOD

 REUSING RIVS FROM LAST STRESS PERIOD

 REUSING RCHS FROM LAST STRESS PERIOD
 UBDSV06 SAVING              DRN IN MODEL GWF_1            PACKAGE GWF_1           CONNECTED TO MODEL GWF_1            PACKAGE DRN_SYS1         ON UNIT   1018 AT TIME STEP      1, STRESS PERIOD    311
 UBDSV06 SAVING              RIV IN MODEL GWF_1            PACKAGE GWF_1           CONNECTED TO MODEL GWF_1            PACKAGE RIV_SYS1         ON UNIT   1018 AT TIME STEP      1, STRESS PERIOD    311
 UBDSV06 SAVING              RIV IN MODEL GWF_1            PACKAGE GWF_1           CONNECTED TO MODEL GWF_1            PACKAGE RIV_SYS2         ON UNIT   1018 AT TIME STEP      1, STRESS PERIOD    311
 UBDSV06 SAVING              RCH IN MODEL GWF_1            PACKAGE GWF_1           CONNECTED TO MODEL GWF_1            PACKAGE RCH_MSW          ON UNIT   1018 AT TIME STEP      1, STRESS PERIOD    311

 HEAD WILL BE SAVED ON UNIT 1017 AT END OF TIME STEP    1, STRESS PERIOD  311


  VOLUME BUDGET FOR ENTIRE MODEL AT END OF TIME STEP    1, STRESS PERIOD 311
  ---------------------------------------------------------------------------------------------------

     CUMULATIVE VOLUME      L**3       RATES FOR THIS TIME STEP      L**3/T          PACKAGE NAME    
     ------------------                 ------------------------                     ----------------

           IN:                                      IN:
           ---                                      ---
              STO-SS =      222622.1630                STO-SS =         287.3129     STORAGE                          
                 DRN =           0.0000                   DRN =           0.0000     DRN_SYS1                         
                 RIV =      251736.5413                   RIV =         437.0910     RIV_SYS1                         
                 RIV =           0.0000                   RIV =           0.0000     RIV_SYS2                         
                 RCH =      397195.9810                   RCH =        2686.7072     RCH_MSW                          

            TOTAL IN =      871554.6853              TOTAL IN =        3411.1111

          OUT:                                     OUT:
          ----                                     ----
              STO-SS =       50118.5868                STO-SS =         140.6528     STORAGE                          
                 DRN =       15948.6021                   DRN =          71.7229     DRN_SYS1                         
                 RIV =      753692.0147                   RIV =        2997.8840     RIV_SYS1                         
                 RIV =       45307.0171                   RIV =         200.8765     RIV_SYS2                         
                 RCH =        6488.4405                   RCH =           0.0000     RCH_MSW                          

           TOTAL OUT =      871554.6611             TOTAL OUT =        3411.1361

            IN - OUT =       2.4158E-02              IN - OUT =      -2.5079E-02

 PERCENT DISCREPANCY =           0.00     PERCENT DISCREPANCY =          -0.00




         TIME SUMMARY AT END OF TIME STEP    1 IN STRESS PERIOD  311
                    SECONDS     MINUTES      HOURS       DAYS        YEARS
                    -----------------------------------------------------------
   TIME STEP LENGTH  86400.      1440.0      24.000      1.0000     2.73785E-03
 STRESS PERIOD TIME  86400.      1440.0      24.000      1.0000     2.73785E-03
         TOTAL TIME 2.68704E+07 4.47840E+05  7464.0      311.00     0.85147    


end timestep


start timestep kper="312" kstp="1" mode="normal"

 #Stressperiod Save Options

 BEGIN READING OUTPUT CONTROL FOR STRESS PERIOD 312
      ALL TIME STEPS WILL BE SAVED
      ALL TIME STEPS WILL BE SAVED

 END READING OUTPUT CONTROL FOR STRESS PERIOD 312


 PROCESSING STORAGE PERIOD DATA
 END PROCESSING STORAGE PERIOD DATA


 STRESS PERIOD 312 IS TRANSIENT


 REUSING DRNS FROM LAST STRESS PERIOD

 REUSING RIVS FROM LAST STRESS PERIOD

 REUSING RIVS FROM LAST STRESS PERIOD

 REUSING RCHS FROM LAST STRESS PERIOD
 UBDSV06 SAVING              DRN IN MODEL GWF_1            PACKAGE GWF_1           CONNECTED TO MODEL GWF_1            PACKAGE DRN_SYS1         ON UNIT   1018 AT TIME STEP      1, STRESS PERIOD    312
 UBDSV06 SAVING              RIV IN MODEL GWF_1            PACKAGE GWF_1           CONNECTED TO MODEL GWF_1            PACKAGE RIV_SYS1         ON UNIT   1018 AT TIME STEP      1, STRESS PERIOD    312
 UBDSV06 SAVING              RIV IN MODEL GWF_1            PACKAGE GWF_1           CONNECTED TO MODEL GWF_1            PACKAGE RIV_SYS2         ON UNIT   1018 AT TIME STEP      1, STRESS PERIOD    312
 UBDSV06 SAVING              RCH IN MODEL GWF_1            PACKAGE GWF_1           CONNECTED TO MODEL GWF_1            PACKAGE RCH_MSW          ON UNIT   1018 AT TIME STEP      1, STRESS PERIOD    312

 HEAD WILL BE SAVED ON UNIT 1017 AT END OF TIME STEP    1, STRESS PERIOD  312


  VOLUME BUDGET FOR ENTIRE MODEL AT END OF TIME STEP    1, STRESS PERIOD 312
  ---------------------------------------------------------------------------------------------------

     CUMULATIVE VOLUME      L**3       RATES FOR THIS TIME STEP      L**3/T          PACKAGE NAME    
     ------------------                 ------------------------                     ----------------

           IN:                                      IN:
           ---                                      ---
              STO-SS =      222972.5133                STO-SS =         350.3503     STORAGE                          
                 DRN =           0.0000                   DRN =           0.0000     DRN_SYS1                         
                 RIV =      252196.7160                   RIV =         460.1746     RIV_SYS1                         
                 RIV =           0.0000                   RIV =           0.0000     RIV_SYS2                         
                 RCH =      399656.5852                   RCH =        2460.6042     RCH_MSW                          

            TOTAL IN =      874825.8144              TOTAL IN =        3271.1291

          OUT:                                     OUT:
          ----                                     ----
              STO-SS =       50181.9359                STO-SS =          63.3491     STORAGE                          
                 DRN =       16020.0443                   DRN =          71.4422     DRN_SYS1                         
                 RIV =      756628.8371                   RIV =        2936.8223     RIV_SYS1                         
                 RIV =       45506.5526                   RIV =         199.5355     RIV_SYS2                         
                 RCH =        6488.4405                   RCH =           0.0000     RCH_MSW                          

           TOTAL OUT =      874825.8103             TOTAL OUT =        3271.1492

            IN - OUT =       4.0686E-03              IN - OUT =      -2.0090E-02

 PERCENT DISCREPANCY =           0.00     PERCENT DISCREPANCY =          -0.00




         TIME SUMMARY AT END OF TIME STEP    1 IN STRESS PERIOD  312
                    SECONDS     MINUTES      HOURS       DAYS        YEARS
                    -----------------------------------------------------------
   TIME STEP LENGTH  86400.      1440.0      24.000      1.0000     2.73785E-03
 STRESS PERIOD TIME  86400.      1440.0      24.000      1.0000     2.73785E-03
         TOTAL TIME 2.69568E+07 4.49280E+05  7488.0      312.00     0.85421    


end timestep


start timestep kper="313" kstp="1" mode="normal"

 #Stressperiod Save Options

 BEGIN READING OUTPUT CONTROL FOR STRESS PERIOD 313
      ALL TIME STEPS WILL BE SAVED
      ALL TIME STEPS WILL BE SAVED

 END READING OUTPUT CONTROL FOR STRESS PERIOD 313


 PROCESSING STORAGE PERIOD DATA
 END PROCESSING STORAGE PERIOD DATA


 STRESS PERIOD 313 IS TRANSIENT


 REUSING DRNS FROM LAST STRESS PERIOD

 REUSING RIVS FROM LAST STRESS PERIOD

 REUSING RIVS FROM LAST STRESS PERIOD

 REUSING RCHS FROM LAST STRESS PERIOD
 UBDSV06 SAVING              DRN IN MODEL GWF_1            PACKAGE GWF_1           CONNECTED TO MODEL GWF_1            PACKAGE DRN_SYS1         ON UNIT   1018 AT TIME STEP      1, STRESS PERIOD    313
 UBDSV06 SAVING              RIV IN MODEL GWF_1            PACKAGE GWF_1           CONNECTED TO MODEL GWF_1            PACKAGE RIV_SYS1         ON UNIT   1018 AT TIME STEP      1, STRESS PERIOD    313
 UBDSV06 SAVING              RIV IN MODEL GWF_1            PACKAGE GWF_1           CONNECTED TO MODEL GWF_1            PACKAGE RIV_SYS2         ON UNIT   1018 AT TIME STEP      1, STRESS PERIOD    313
 UBDSV06 SAVING              RCH IN MODEL GWF_1            PACKAGE GWF_1           CONNECTED TO MODEL GWF_1            PACKAGE RCH_MSW          ON UNIT   1018 AT TIME STEP      1, STRESS PERIOD    313

 HEAD WILL BE SAVED ON UNIT 1017 AT END OF TIME STEP    1, STRESS PERIOD  313


  VOLUME BUDGET FOR ENTIRE MODEL AT END OF TIME STEP    1, STRESS PERIOD 313
  ---------------------------------------------------------------------------------------------------

     CUMULATIVE VOLUME      L**3       RATES FOR THIS TIME STEP      L**3/T          PACKAGE NAME    
     ------------------                 ------------------------                     ----------------

           IN:                                      IN:
           ---                                      ---
              STO-SS =      223390.3337                STO-SS =         417.8204     STORAGE                          
                 DRN =           0.0000                   DRN =           0.0000     DRN_SYS1                         
                 RIV =      252679.4453                   RIV =         482.7293     RIV_SYS1                         
                 RIV =           0.0000                   RIV =           0.0000     RIV_SYS2                         
                 RCH =      401922.0991                   RCH =        2265.5139     RCH_MSW                          

            TOTAL IN =      877991.8781              TOTAL IN =        3166.0637

          OUT:                                     OUT:
          ----                                     ----
              STO-SS =       50200.8660                STO-SS =          18.9302     STORAGE                          
                 DRN =       16090.9551                   DRN =          70.9108     DRN_SYS1                         
                 RIV =      759507.4785                   RIV =        2878.6414     RIV_SYS1                         
                 RIV =       45704.1394                   RIV =         197.5867     RIV_SYS2                         
                 RCH =        6488.4405                   RCH =           0.0000     RCH_MSW                          

           TOTAL OUT =      877991.8794             TOTAL OUT =        3166.0691

            IN - OUT =      -1.3392E-03              IN - OUT =      -5.4078E-03

 PERCENT DISCREPANCY =          -0.00     PERCENT DISCREPANCY =          -0.00




         TIME SUMMARY AT END OF TIME STEP    1 IN STRESS PERIOD  313
                    SECONDS     MINUTES      HOURS       DAYS        YEARS
                    -----------------------------------------------------------
   TIME STEP LENGTH  86400.      1440.0      24.000      1.0000     2.73785E-03
 STRESS PERIOD TIME  86400.      1440.0      24.000      1.0000     2.73785E-03
         TOTAL TIME 2.70432E+07 4.50720E+05  7512.0      313.00     0.85695    


end timestep


start timestep kper="314" kstp="1" mode="normal"

 #Stressperiod Save Options

 BEGIN READING OUTPUT CONTROL FOR STRESS PERIOD 314
      ALL TIME STEPS WILL BE SAVED
      ALL TIME STEPS WILL BE SAVED

 END READING OUTPUT CONTROL FOR STRESS PERIOD 314


 PROCESSING STORAGE PERIOD DATA
 END PROCESSING STORAGE PERIOD DATA


 STRESS PERIOD 314 IS TRANSIENT


 REUSING DRNS FROM LAST STRESS PERIOD

 REUSING RIVS FROM LAST STRESS PERIOD

 REUSING RIVS FROM LAST STRESS PERIOD

 REUSING RCHS FROM LAST STRESS PERIOD
 UBDSV06 SAVING              DRN IN MODEL GWF_1            PACKAGE GWF_1           CONNECTED TO MODEL GWF_1            PACKAGE DRN_SYS1         ON UNIT   1018 AT TIME STEP      1, STRESS PERIOD    314
 UBDSV06 SAVING              RIV IN MODEL GWF_1            PACKAGE GWF_1           CONNECTED TO MODEL GWF_1            PACKAGE RIV_SYS1         ON UNIT   1018 AT TIME STEP      1, STRESS PERIOD    314
 UBDSV06 SAVING              RIV IN MODEL GWF_1            PACKAGE GWF_1           CONNECTED TO MODEL GWF_1            PACKAGE RIV_SYS2         ON UNIT   1018 AT TIME STEP      1, STRESS PERIOD    314
 UBDSV06 SAVING              RCH IN MODEL GWF_1            PACKAGE GWF_1           CONNECTED TO MODEL GWF_1            PACKAGE RCH_MSW          ON UNIT   1018 AT TIME STEP      1, STRESS PERIOD    314

 HEAD WILL BE SAVED ON UNIT 1017 AT END OF TIME STEP    1, STRESS PERIOD  314


  VOLUME BUDGET FOR ENTIRE MODEL AT END OF TIME STEP    1, STRESS PERIOD 314
  ---------------------------------------------------------------------------------------------------

     CUMULATIVE VOLUME      L**3       RATES FOR THIS TIME STEP      L**3/T          PACKAGE NAME    
     ------------------                 ------------------------                     ----------------

           IN:                                      IN:
           ---                                      ---
              STO-SS =      223865.0380                STO-SS =         474.7043     STORAGE                          
                 DRN =           0.0000                   DRN =           0.0000     DRN_SYS1                         
                 RIV =      253183.3617                   RIV =         503.9164     RIV_SYS1                         
                 RIV =           0.0000                   RIV =           0.0000     RIV_SYS2                         
                 RCH =      404035.2681                   RCH =        2113.1691     RCH_MSW                          

            TOTAL IN =      881083.6679              TOTAL IN =        3091.7898

          OUT:                                     OUT:
          ----                                     ----
              STO-SS =       50202.0649                STO-SS =           1.1989     STORAGE                          
                 DRN =       16161.1529                   DRN =          70.1978     DRN_SYS1                         
                 RIV =      762332.6541                   RIV =        2825.1756     RIV_SYS1                         
                 RIV =       45899.3574                   RIV =         195.2181     RIV_SYS2                         
                 RCH =        6488.4405                   RCH =           0.0000     RCH_MSW                          

           TOTAL OUT =      881083.6697             TOTAL OUT =        3091.7903

            IN - OUT =      -1.8789E-03              IN - OUT =      -5.3971E-04

 PERCENT DISCREPANCY =          -0.00     PERCENT DISCREPANCY =          -0.00




         TIME SUMMARY AT END OF TIME STEP    1 IN STRESS PERIOD  314
                    SECONDS     MINUTES      HOURS       DAYS        YEARS
                    -----------------------------------------------------------
   TIME STEP LENGTH  86400.      1440.0      24.000      1.0000     2.73785E-03
 STRESS PERIOD TIME  86400.      1440.0      24.000      1.0000     2.73785E-03
         TOTAL TIME 2.71296E+07 4.52160E+05  7536.0      314.00     0.85969    


end timestep


start timestep kper="315" kstp="1" mode="normal"

 #Stressperiod Save Options

 BEGIN READING OUTPUT CONTROL FOR STRESS PERIOD 315
      ALL TIME STEPS WILL BE SAVED
      ALL TIME STEPS WILL BE SAVED

 END READING OUTPUT CONTROL FOR STRESS PERIOD 315


 PROCESSING STORAGE PERIOD DATA
 END PROCESSING STORAGE PERIOD DATA


 STRESS PERIOD 315 IS TRANSIENT


 REUSING DRNS FROM LAST STRESS PERIOD

 REUSING RIVS FROM LAST STRESS PERIOD

 REUSING RIVS FROM LAST STRESS PERIOD

 REUSING RCHS FROM LAST STRESS PERIOD
 UBDSV06 SAVING              DRN IN MODEL GWF_1            PACKAGE GWF_1           CONNECTED TO MODEL GWF_1            PACKAGE DRN_SYS1         ON UNIT   1018 AT TIME STEP      1, STRESS PERIOD    315
 UBDSV06 SAVING              RIV IN MODEL GWF_1            PACKAGE GWF_1           CONNECTED TO MODEL GWF_1            PACKAGE RIV_SYS1         ON UNIT   1018 AT TIME STEP      1, STRESS PERIOD    315
 UBDSV06 SAVING              RIV IN MODEL GWF_1            PACKAGE GWF_1           CONNECTED TO MODEL GWF_1            PACKAGE RIV_SYS2         ON UNIT   1018 AT TIME STEP      1, STRESS PERIOD    315
 UBDSV06 SAVING              RCH IN MODEL GWF_1            PACKAGE GWF_1           CONNECTED TO MODEL GWF_1            PACKAGE RCH_MSW          ON UNIT   1018 AT TIME STEP      1, STRESS PERIOD    315

 HEAD WILL BE SAVED ON UNIT 1017 AT END OF TIME STEP    1, STRESS PERIOD  315


  VOLUME BUDGET FOR ENTIRE MODEL AT END OF TIME STEP    1, STRESS PERIOD 315
  ---------------------------------------------------------------------------------------------------

     CUMULATIVE VOLUME      L**3       RATES FOR THIS TIME STEP      L**3/T          PACKAGE NAME    
     ------------------                 ------------------------                     ----------------

           IN:                                      IN:
           ---                                      ---
              STO-SS =      224375.0040                STO-SS =         509.9660     STORAGE                          
                 DRN =           0.0000                   DRN =           0.0000     DRN_SYS1                         
                 RIV =      253706.5792                   RIV =         523.2175     RIV_SYS1                         
                 RIV =           0.0000                   RIV =           0.0000     RIV_SYS2                         
                 RCH =      406041.5009                   RCH =        2006.2327     RCH_MSW                          

            TOTAL IN =      884123.0841              TOTAL IN =        3039.4163

          OUT:                                     OUT:
          ----                                     ----
              STO-SS =       50202.0649                STO-SS =           0.0000     STORAGE                          
                 DRN =       16230.5364                   DRN =          69.3835     DRN_SYS1                         
                 RIV =      765110.0502                   RIV =        2777.3961     RIV_SYS1                         
                 RIV =       46091.9962                   RIV =         192.6388     RIV_SYS2                         
                 RCH =        6488.4405                   RCH =           0.0000     RCH_MSW                          

           TOTAL OUT =      884123.0881             TOTAL OUT =        3039.4184

            IN - OUT =      -4.0174E-03              IN - OUT =      -2.1385E-03

 PERCENT DISCREPANCY =          -0.00     PERCENT DISCREPANCY =          -0.00




         TIME SUMMARY AT END OF TIME STEP    1 IN STRESS PERIOD  315
                    SECONDS     MINUTES      HOURS       DAYS        YEARS
                    -----------------------------------------------------------
   TIME STEP LENGTH  86400.      1440.0      24.000      1.0000     2.73785E-03
 STRESS PERIOD TIME  86400.      1440.0      24.000      1.0000     2.73785E-03
         TOTAL TIME 2.72160E+07 4.53600E+05  7560.0      315.00     0.86242    


end timestep


start timestep kper="316" kstp="1" mode="normal"

 #Stressperiod Save Options

 BEGIN READING OUTPUT CONTROL FOR STRESS PERIOD 316
      ALL TIME STEPS WILL BE SAVED
      ALL TIME STEPS WILL BE SAVED

 END READING OUTPUT CONTROL FOR STRESS PERIOD 316


 PROCESSING STORAGE PERIOD DATA
 END PROCESSING STORAGE PERIOD DATA


 STRESS PERIOD 316 IS TRANSIENT


 REUSING DRNS FROM LAST STRESS PERIOD

 REUSING RIVS FROM LAST STRESS PERIOD

 REUSING RIVS FROM LAST STRESS PERIOD

 REUSING RCHS FROM LAST STRESS PERIOD
 UBDSV06 SAVING              DRN IN MODEL GWF_1            PACKAGE GWF_1           CONNECTED TO MODEL GWF_1            PACKAGE DRN_SYS1         ON UNIT   1018 AT TIME STEP      1, STRESS PERIOD    316
 UBDSV06 SAVING              RIV IN MODEL GWF_1            PACKAGE GWF_1           CONNECTED TO MODEL GWF_1            PACKAGE RIV_SYS1         ON UNIT   1018 AT TIME STEP      1, STRESS PERIOD    316
 UBDSV06 SAVING              RIV IN MODEL GWF_1            PACKAGE GWF_1           CONNECTED TO MODEL GWF_1            PACKAGE RIV_SYS2         ON UNIT   1018 AT TIME STEP      1, STRESS PERIOD    316
 UBDSV06 SAVING              RCH IN MODEL GWF_1            PACKAGE GWF_1           CONNECTED TO MODEL GWF_1            PACKAGE RCH_MSW          ON UNIT   1018 AT TIME STEP      1, STRESS PERIOD    316

 HEAD WILL BE SAVED ON UNIT 1017 AT END OF TIME STEP    1, STRESS PERIOD  316


  VOLUME BUDGET FOR ENTIRE MODEL AT END OF TIME STEP    1, STRESS PERIOD 316
  ---------------------------------------------------------------------------------------------------

     CUMULATIVE VOLUME      L**3       RATES FOR THIS TIME STEP      L**3/T          PACKAGE NAME    
     ------------------                 ------------------------                     ----------------

           IN:                                      IN:
           ---                                      ---
              STO-SS =      224902.5143                STO-SS =         527.5102     STORAGE                          
                 DRN =           0.0000                   DRN =           0.0000     DRN_SYS1                         
                 RIV =      254247.4109                   RIV =         540.8317     RIV_SYS1                         
                 RIV =           0.0000                   RIV =           0.0000     RIV_SYS2                         
                 RCH =      407966.0322                   RCH =        1924.5313     RCH_MSW                          

            TOTAL IN =      887115.9574              TOTAL IN =        2992.8732

          OUT:                                     OUT:
          ----                                     ----
              STO-SS =       50202.0649                STO-SS =           0.0000     STORAGE                          
                 DRN =       16299.0480                   DRN =          68.5116     DRN_SYS1                         
                 RIV =      767844.4382                   RIV =        2734.3880     RIV_SYS1                         
                 RIV =       46281.9720                   RIV =         189.9757     RIV_SYS2                         
                 RCH =        6488.4405                   RCH =           0.0000     RCH_MSW                          

           TOTAL OUT =      887115.9636             TOTAL OUT =        2992.8754

            IN - OUT =      -6.1966E-03              IN - OUT =      -2.1792E-03

 PERCENT DISCREPANCY =          -0.00     PERCENT DISCREPANCY =          -0.00




         TIME SUMMARY AT END OF TIME STEP    1 IN STRESS PERIOD  316
                    SECONDS     MINUTES      HOURS       DAYS        YEARS
                    -----------------------------------------------------------
   TIME STEP LENGTH  86400.      1440.0      24.000      1.0000     2.73785E-03
 STRESS PERIOD TIME  86400.      1440.0      24.000      1.0000     2.73785E-03
         TOTAL TIME 2.73024E+07 4.55040E+05  7584.0      316.00     0.86516    


end timestep


start timestep kper="317" kstp="1" mode="normal"

 #Stressperiod Save Options

 BEGIN READING OUTPUT CONTROL FOR STRESS PERIOD 317
      ALL TIME STEPS WILL BE SAVED
      ALL TIME STEPS WILL BE SAVED

 END READING OUTPUT CONTROL FOR STRESS PERIOD 317


 PROCESSING STORAGE PERIOD DATA
 END PROCESSING STORAGE PERIOD DATA


 STRESS PERIOD 317 IS TRANSIENT


 REUSING DRNS FROM LAST STRESS PERIOD

 REUSING RIVS FROM LAST STRESS PERIOD

 REUSING RIVS FROM LAST STRESS PERIOD

 REUSING RCHS FROM LAST STRESS PERIOD
 UBDSV06 SAVING              DRN IN MODEL GWF_1            PACKAGE GWF_1           CONNECTED TO MODEL GWF_1            PACKAGE DRN_SYS1         ON UNIT   1018 AT TIME STEP      1, STRESS PERIOD    317
 UBDSV06 SAVING              RIV IN MODEL GWF_1            PACKAGE GWF_1           CONNECTED TO MODEL GWF_1            PACKAGE RIV_SYS1         ON UNIT   1018 AT TIME STEP      1, STRESS PERIOD    317
 UBDSV06 SAVING              RIV IN MODEL GWF_1            PACKAGE GWF_1           CONNECTED TO MODEL GWF_1            PACKAGE RIV_SYS2         ON UNIT   1018 AT TIME STEP      1, STRESS PERIOD    317
 UBDSV06 SAVING              RCH IN MODEL GWF_1            PACKAGE GWF_1           CONNECTED TO MODEL GWF_1            PACKAGE RCH_MSW          ON UNIT   1018 AT TIME STEP      1, STRESS PERIOD    317

 HEAD WILL BE SAVED ON UNIT 1017 AT END OF TIME STEP    1, STRESS PERIOD  317


  VOLUME BUDGET FOR ENTIRE MODEL AT END OF TIME STEP    1, STRESS PERIOD 317
  ---------------------------------------------------------------------------------------------------

     CUMULATIVE VOLUME      L**3       RATES FOR THIS TIME STEP      L**3/T          PACKAGE NAME    
     ------------------                 ------------------------                     ----------------

           IN:                                      IN:
           ---                                      ---
              STO-SS =      225428.5696                STO-SS =         526.0553     STORAGE                          
                 DRN =           0.0000                   DRN =           0.0000     DRN_SYS1                         
                 RIV =      254803.9942                   RIV =         556.5833     RIV_SYS1                         
                 RIV =           0.0000                   RIV =           0.0000     RIV_SYS2                         
                 RCH =      409834.6327                   RCH =        1868.6005     RCH_MSW                          

            TOTAL IN =      890067.1965              TOTAL IN =        2951.2392

          OUT:                                     OUT:
          ----                                     ----
              STO-SS =       50202.0649                STO-SS =           0.0000     STORAGE                          
                 DRN =       16366.6625                   DRN =          67.6145     DRN_SYS1                         
                 RIV =      770540.7557                   RIV =        2696.3175     RIV_SYS1                         
                 RIV =       46469.2800                   RIV =         187.3080     RIV_SYS2                         
                 RCH =        6488.4405                   RCH =           0.0000     RCH_MSW                          

           TOTAL OUT =      890067.2036             TOTAL OUT =        2951.2400

            IN - OUT =      -7.0352E-03              IN - OUT =      -8.3861E-04

 PERCENT DISCREPANCY =          -0.00     PERCENT DISCREPANCY =          -0.00




         TIME SUMMARY AT END OF TIME STEP    1 IN STRESS PERIOD  317
                    SECONDS     MINUTES      HOURS       DAYS        YEARS
                    -----------------------------------------------------------
   TIME STEP LENGTH  86400.      1440.0      24.000      1.0000     2.73785E-03
 STRESS PERIOD TIME  86400.      1440.0      24.000      1.0000     2.73785E-03
         TOTAL TIME 2.73888E+07 4.56480E+05  7608.0      317.00     0.86790    


end timestep


start timestep kper="318" kstp="1" mode="normal"

 #Stressperiod Save Options

 BEGIN READING OUTPUT CONTROL FOR STRESS PERIOD 318
      ALL TIME STEPS WILL BE SAVED
      ALL TIME STEPS WILL BE SAVED

 END READING OUTPUT CONTROL FOR STRESS PERIOD 318


 PROCESSING STORAGE PERIOD DATA
 END PROCESSING STORAGE PERIOD DATA


 STRESS PERIOD 318 IS TRANSIENT


 REUSING DRNS FROM LAST STRESS PERIOD

 REUSING RIVS FROM LAST STRESS PERIOD

 REUSING RIVS FROM LAST STRESS PERIOD

 REUSING RCHS FROM LAST STRESS PERIOD
 UBDSV06 SAVING              DRN IN MODEL GWF_1            PACKAGE GWF_1           CONNECTED TO MODEL GWF_1            PACKAGE DRN_SYS1         ON UNIT   1018 AT TIME STEP      1, STRESS PERIOD    318
 UBDSV06 SAVING              RIV IN MODEL GWF_1            PACKAGE GWF_1           CONNECTED TO MODEL GWF_1            PACKAGE RIV_SYS1         ON UNIT   1018 AT TIME STEP      1, STRESS PERIOD    318
 UBDSV06 SAVING              RIV IN MODEL GWF_1            PACKAGE GWF_1           CONNECTED TO MODEL GWF_1            PACKAGE RIV_SYS2         ON UNIT   1018 AT TIME STEP      1, STRESS PERIOD    318
 UBDSV06 SAVING              RCH IN MODEL GWF_1            PACKAGE GWF_1           CONNECTED TO MODEL GWF_1            PACKAGE RCH_MSW          ON UNIT   1018 AT TIME STEP      1, STRESS PERIOD    318

 HEAD WILL BE SAVED ON UNIT 1017 AT END OF TIME STEP    1, STRESS PERIOD  318


  VOLUME BUDGET FOR ENTIRE MODEL AT END OF TIME STEP    1, STRESS PERIOD 318
  ---------------------------------------------------------------------------------------------------

     CUMULATIVE VOLUME      L**3       RATES FOR THIS TIME STEP      L**3/T          PACKAGE NAME    
     ------------------                 ------------------------                     ----------------

           IN:                                      IN:
           ---                                      ---
              STO-SS =      225764.3911                STO-SS =         335.8216     STORAGE                          
                 DRN =           0.0000                   DRN =           0.0000     DRN_SYS1                         
                 RIV =      255366.5624                   RIV =         562.5681     RIV_SYS1                         
                 RIV =           0.0000                   RIV =           0.0000     RIV_SYS2                         
                 RCH =      411875.9846                   RCH =        2041.3519     RCH_MSW                          

            TOTAL IN =      893006.9381              TOTAL IN =        2939.7416

          OUT:                                     OUT:
          ----                                     ----
              STO-SS =       50203.0235                STO-SS =           0.9586     STORAGE                          
                 DRN =       16433.6315                   DRN =          66.9690     DRN_SYS1                         
                 RIV =      773227.1569                   RIV =        2686.4012     RIV_SYS1                         
                 RIV =       46654.6940                   RIV =         185.4140     RIV_SYS2                         
                 RCH =        6488.4405                   RCH =           0.0000     RCH_MSW                          

           TOTAL OUT =      893006.9464             TOTAL OUT =        2939.7428

            IN - OUT =      -8.2954E-03              IN - OUT =      -1.2602E-03

 PERCENT DISCREPANCY =          -0.00     PERCENT DISCREPANCY =          -0.00




         TIME SUMMARY AT END OF TIME STEP    1 IN STRESS PERIOD  318
                    SECONDS     MINUTES      HOURS       DAYS        YEARS
                    -----------------------------------------------------------
   TIME STEP LENGTH  86400.      1440.0      24.000      1.0000     2.73785E-03
 STRESS PERIOD TIME  86400.      1440.0      24.000      1.0000     2.73785E-03
         TOTAL TIME 2.74752E+07 4.57920E+05  7632.0      318.00     0.87064    


end timestep


start timestep kper="319" kstp="1" mode="normal"

 #Stressperiod Save Options

 BEGIN READING OUTPUT CONTROL FOR STRESS PERIOD 319
      ALL TIME STEPS WILL BE SAVED
      ALL TIME STEPS WILL BE SAVED

 END READING OUTPUT CONTROL FOR STRESS PERIOD 319


 PROCESSING STORAGE PERIOD DATA
 END PROCESSING STORAGE PERIOD DATA


 STRESS PERIOD 319 IS TRANSIENT


 REUSING DRNS FROM LAST STRESS PERIOD

 REUSING RIVS FROM LAST STRESS PERIOD

 REUSING RIVS FROM LAST STRESS PERIOD

 REUSING RCHS FROM LAST STRESS PERIOD
 UBDSV06 SAVING              DRN IN MODEL GWF_1            PACKAGE GWF_1           CONNECTED TO MODEL GWF_1            PACKAGE DRN_SYS1         ON UNIT   1018 AT TIME STEP      1, STRESS PERIOD    319
 UBDSV06 SAVING              RIV IN MODEL GWF_1            PACKAGE GWF_1           CONNECTED TO MODEL GWF_1            PACKAGE RIV_SYS1         ON UNIT   1018 AT TIME STEP      1, STRESS PERIOD    319
 UBDSV06 SAVING              RIV IN MODEL GWF_1            PACKAGE GWF_1           CONNECTED TO MODEL GWF_1            PACKAGE RIV_SYS2         ON UNIT   1018 AT TIME STEP      1, STRESS PERIOD    319
 UBDSV06 SAVING              RCH IN MODEL GWF_1            PACKAGE GWF_1           CONNECTED TO MODEL GWF_1            PACKAGE RCH_MSW          ON UNIT   1018 AT TIME STEP      1, STRESS PERIOD    319

 HEAD WILL BE SAVED ON UNIT 1017 AT END OF TIME STEP    1, STRESS PERIOD  319


  VOLUME BUDGET FOR ENTIRE MODEL AT END OF TIME STEP    1, STRESS PERIOD 319
  ---------------------------------------------------------------------------------------------------

     CUMULATIVE VOLUME      L**3       RATES FOR THIS TIME STEP      L**3/T          PACKAGE NAME    
     ------------------                 ------------------------                     ----------------

           IN:                                      IN:
           ---                                      ---
              STO-SS =      225990.4108                STO-SS =         226.0197     STORAGE                          
                 DRN =           0.0000                   DRN =           0.0000     DRN_SYS1                         
                 RIV =      255931.4913                   RIV =         564.9290     RIV_SYS1                         
                 RIV =           0.0000                   RIV =           0.0000     RIV_SYS2                         
                 RCH =      414025.5519                   RCH =        2149.5673     RCH_MSW                          

            TOTAL IN =      895947.4540              TOTAL IN =        2940.5159

          OUT:                                     OUT:
          ----                                     ----
              STO-SS =       50206.8294                STO-SS =           3.8059     STORAGE                          
                 DRN =       16500.1329                   DRN =          66.5014     DRN_SYS1                         
                 RIV =      775913.2962                   RIV =        2686.1393     RIV_SYS1                         
                 RIV =       46838.7656                   RIV =         184.0716     RIV_SYS2                         
                 RCH =        6488.4405                   RCH =           0.0000     RCH_MSW                          

           TOTAL OUT =      895947.4647             TOTAL OUT =        2940.5183

            IN - OUT =      -1.0652E-02              IN - OUT =      -2.3570E-03

 PERCENT DISCREPANCY =          -0.00     PERCENT DISCREPANCY =          -0.00




         TIME SUMMARY AT END OF TIME STEP    1 IN STRESS PERIOD  319
                    SECONDS     MINUTES      HOURS       DAYS        YEARS
                    -----------------------------------------------------------
   TIME STEP LENGTH  86400.      1440.0      24.000      1.0000     2.73785E-03
 STRESS PERIOD TIME  86400.      1440.0      24.000      1.0000     2.73785E-03
         TOTAL TIME 2.75616E+07 4.59360E+05  7656.0      319.00     0.87337    


end timestep


start timestep kper="320" kstp="1" mode="normal"

 #Stressperiod Save Options

 BEGIN READING OUTPUT CONTROL FOR STRESS PERIOD 320
      ALL TIME STEPS WILL BE SAVED
      ALL TIME STEPS WILL BE SAVED

 END READING OUTPUT CONTROL FOR STRESS PERIOD 320


 PROCESSING STORAGE PERIOD DATA
 END PROCESSING STORAGE PERIOD DATA


 STRESS PERIOD 320 IS TRANSIENT


 REUSING DRNS FROM LAST STRESS PERIOD

 REUSING RIVS FROM LAST STRESS PERIOD

 REUSING RIVS FROM LAST STRESS PERIOD

 REUSING RCHS FROM LAST STRESS PERIOD
 UBDSV06 SAVING              DRN IN MODEL GWF_1            PACKAGE GWF_1           CONNECTED TO MODEL GWF_1            PACKAGE DRN_SYS1         ON UNIT   1018 AT TIME STEP      1, STRESS PERIOD    320
 UBDSV06 SAVING              RIV IN MODEL GWF_1            PACKAGE GWF_1           CONNECTED TO MODEL GWF_1            PACKAGE RIV_SYS1         ON UNIT   1018 AT TIME STEP      1, STRESS PERIOD    320
 UBDSV06 SAVING              RIV IN MODEL GWF_1            PACKAGE GWF_1           CONNECTED TO MODEL GWF_1            PACKAGE RIV_SYS2         ON UNIT   1018 AT TIME STEP      1, STRESS PERIOD    320
 UBDSV06 SAVING              RCH IN MODEL GWF_1            PACKAGE GWF_1           CONNECTED TO MODEL GWF_1            PACKAGE RCH_MSW          ON UNIT   1018 AT TIME STEP      1, STRESS PERIOD    320

 HEAD WILL BE SAVED ON UNIT 1017 AT END OF TIME STEP    1, STRESS PERIOD  320


  VOLUME BUDGET FOR ENTIRE MODEL AT END OF TIME STEP    1, STRESS PERIOD 320
  ---------------------------------------------------------------------------------------------------

     CUMULATIVE VOLUME      L**3       RATES FOR THIS TIME STEP      L**3/T          PACKAGE NAME    
     ------------------                 ------------------------                     ----------------

           IN:                                      IN:
           ---                                      ---
              STO-SS =      226196.8976                STO-SS =         206.4868     STORAGE                          
                 DRN =           0.0000                   DRN =           0.0000     DRN_SYS1                         
                 RIV =      256499.5689                   RIV =         568.0775     RIV_SYS1                         
                 RIV =           0.0000                   RIV =           0.0000     RIV_SYS2                         
                 RCH =      416183.4493                   RCH =        2157.8974     RCH_MSW                          

            TOTAL IN =      898879.9157              TOTAL IN =        2932.4617

          OUT:                                     OUT:
          ----                                     ----
              STO-SS =       50207.8995                STO-SS =           1.0700     STORAGE                          
                 DRN =       16566.2130                   DRN =          66.0801     DRN_SYS1                         
                 RIV =      778595.7282                   RIV =        2682.4319     RIV_SYS1                         
                 RIV =       47021.6471                   RIV =         182.8815     RIV_SYS2                         
                 RCH =        6488.4405                   RCH =           0.0000     RCH_MSW                          

           TOTAL OUT =      898879.9282             TOTAL OUT =        2932.4635

            IN - OUT =      -1.2458E-02              IN - OUT =      -1.8054E-03

 PERCENT DISCREPANCY =          -0.00     PERCENT DISCREPANCY =          -0.00




         TIME SUMMARY AT END OF TIME STEP    1 IN STRESS PERIOD  320
                    SECONDS     MINUTES      HOURS       DAYS        YEARS
                    -----------------------------------------------------------
   TIME STEP LENGTH  86400.      1440.0      24.000      1.0000     2.73785E-03
 STRESS PERIOD TIME  86400.      1440.0      24.000      1.0000     2.73785E-03
         TOTAL TIME 2.76480E+07 4.60800E+05  7680.0      320.00     0.87611    


end timestep


start timestep kper="321" kstp="1" mode="normal"

 #Stressperiod Save Options

 BEGIN READING OUTPUT CONTROL FOR STRESS PERIOD 321
      ALL TIME STEPS WILL BE SAVED
      ALL TIME STEPS WILL BE SAVED

 END READING OUTPUT CONTROL FOR STRESS PERIOD 321


 PROCESSING STORAGE PERIOD DATA
 END PROCESSING STORAGE PERIOD DATA


 STRESS PERIOD 321 IS TRANSIENT


 REUSING DRNS FROM LAST STRESS PERIOD

 REUSING RIVS FROM LAST STRESS PERIOD

 REUSING RIVS FROM LAST STRESS PERIOD

 REUSING RCHS FROM LAST STRESS PERIOD
 UBDSV06 SAVING              DRN IN MODEL GWF_1            PACKAGE GWF_1           CONNECTED TO MODEL GWF_1            PACKAGE DRN_SYS1         ON UNIT   1018 AT TIME STEP      1, STRESS PERIOD    321
 UBDSV06 SAVING              RIV IN MODEL GWF_1            PACKAGE GWF_1           CONNECTED TO MODEL GWF_1            PACKAGE RIV_SYS1         ON UNIT   1018 AT TIME STEP      1, STRESS PERIOD    321
 UBDSV06 SAVING              RIV IN MODEL GWF_1            PACKAGE GWF_1           CONNECTED TO MODEL GWF_1            PACKAGE RIV_SYS2         ON UNIT   1018 AT TIME STEP      1, STRESS PERIOD    321
 UBDSV06 SAVING              RCH IN MODEL GWF_1            PACKAGE GWF_1           CONNECTED TO MODEL GWF_1            PACKAGE RCH_MSW          ON UNIT   1018 AT TIME STEP      1, STRESS PERIOD    321

 HEAD WILL BE SAVED ON UNIT 1017 AT END OF TIME STEP    1, STRESS PERIOD  321


  VOLUME BUDGET FOR ENTIRE MODEL AT END OF TIME STEP    1, STRESS PERIOD 321
  ---------------------------------------------------------------------------------------------------

     CUMULATIVE VOLUME      L**3       RATES FOR THIS TIME STEP      L**3/T          PACKAGE NAME    
     ------------------                 ------------------------                     ----------------

           IN:                                      IN:
           ---                                      ---
              STO-SS =      226382.3429                STO-SS =         185.4453     STORAGE                          
                 DRN =           0.0000                   DRN =           0.0000     DRN_SYS1                         
                 RIV =      257070.5708                   RIV =         571.0020     RIV_SYS1                         
                 RIV =           0.0000                   RIV =           0.0000     RIV_SYS2                         
                 RCH =      418352.9103                   RCH =        2169.4610     RCH_MSW                          

            TOTAL IN =      901805.8240              TOTAL IN =        2925.9083

          OUT:                                     OUT:
          ----                                     ----
              STO-SS =       50208.3570                STO-SS =           0.4575     STORAGE                          
                 DRN =       16631.9171                   DRN =          65.7041     DRN_SYS1                         
                 RIV =      781273.6399                   RIV =        2677.9118     RIV_SYS1                         
                 RIV =       47203.4835                   RIV =         181.8363     RIV_SYS2                         
                 RCH =        6488.4405                   RCH =           0.0000     RCH_MSW                          

           TOTAL OUT =      901805.8379             TOTAL OUT =        2925.9097

            IN - OUT =      -1.3927E-02              IN - OUT =      -1.4696E-03

 PERCENT DISCREPANCY =          -0.00     PERCENT DISCREPANCY =          -0.00




         TIME SUMMARY AT END OF TIME STEP    1 IN STRESS PERIOD  321
                    SECONDS     MINUTES      HOURS       DAYS        YEARS
                    -----------------------------------------------------------
   TIME STEP LENGTH  86400.      1440.0      24.000      1.0000     2.73785E-03
 STRESS PERIOD TIME  86400.      1440.0      24.000      1.0000     2.73785E-03
         TOTAL TIME 2.77344E+07 4.62240E+05  7704.0      321.00     0.87885    


end timestep


start timestep kper="322" kstp="1" mode="normal"

 #Stressperiod Save Options

 BEGIN READING OUTPUT CONTROL FOR STRESS PERIOD 322
      ALL TIME STEPS WILL BE SAVED
      ALL TIME STEPS WILL BE SAVED

 END READING OUTPUT CONTROL FOR STRESS PERIOD 322


 PROCESSING STORAGE PERIOD DATA
 END PROCESSING STORAGE PERIOD DATA


 STRESS PERIOD 322 IS TRANSIENT


 REUSING DRNS FROM LAST STRESS PERIOD

 REUSING RIVS FROM LAST STRESS PERIOD

 REUSING RIVS FROM LAST STRESS PERIOD

 REUSING RCHS FROM LAST STRESS PERIOD
 UBDSV06 SAVING              DRN IN MODEL GWF_1            PACKAGE GWF_1           CONNECTED TO MODEL GWF_1            PACKAGE DRN_SYS1         ON UNIT   1018 AT TIME STEP      1, STRESS PERIOD    322
 UBDSV06 SAVING              RIV IN MODEL GWF_1            PACKAGE GWF_1           CONNECTED TO MODEL GWF_1            PACKAGE RIV_SYS1         ON UNIT   1018 AT TIME STEP      1, STRESS PERIOD    322
 UBDSV06 SAVING              RIV IN MODEL GWF_1            PACKAGE GWF_1           CONNECTED TO MODEL GWF_1            PACKAGE RIV_SYS2         ON UNIT   1018 AT TIME STEP      1, STRESS PERIOD    322
 UBDSV06 SAVING              RCH IN MODEL GWF_1            PACKAGE GWF_1           CONNECTED TO MODEL GWF_1            PACKAGE RCH_MSW          ON UNIT   1018 AT TIME STEP      1, STRESS PERIOD    322

 HEAD WILL BE SAVED ON UNIT 1017 AT END OF TIME STEP    1, STRESS PERIOD  322


  VOLUME BUDGET FOR ENTIRE MODEL AT END OF TIME STEP    1, STRESS PERIOD 322
  ---------------------------------------------------------------------------------------------------

     CUMULATIVE VOLUME      L**3       RATES FOR THIS TIME STEP      L**3/T          PACKAGE NAME    
     ------------------                 ------------------------                     ----------------

           IN:                                      IN:
           ---                                      ---
              STO-SS =      226550.4925                STO-SS =         168.1496     STORAGE                          
                 DRN =           0.0000                   DRN =           0.0000     DRN_SYS1                         
                 RIV =      257644.2482                   RIV =         573.6774     RIV_SYS1                         
                 RIV =           0.0000                   RIV =           0.0000     RIV_SYS2                         
                 RCH =      420530.7894                   RCH =        2177.8791     RCH_MSW                          

            TOTAL IN =      904725.5301              TOTAL IN =        2919.7061

          OUT:                                     OUT:
          ----                                     ----
              STO-SS =       50208.5173                STO-SS =           0.1603     STORAGE                          
                 DRN =       16697.2814                   DRN =          65.3643     DRN_SYS1                         
                 RIV =      783946.9176                   RIV =        2673.2776     RIV_SYS1                         
                 RIV =       47384.3890                   RIV =         180.9056     RIV_SYS2                         
                 RCH =        6488.4405                   RCH =           0.0000     RCH_MSW                          

           TOTAL OUT =      904725.5457             TOTAL OUT =        2919.7077

            IN - OUT =      -1.5546E-02              IN - OUT =      -1.6184E-03

 PERCENT DISCREPANCY =          -0.00     PERCENT DISCREPANCY =          -0.00




         TIME SUMMARY AT END OF TIME STEP    1 IN STRESS PERIOD  322
                    SECONDS     MINUTES      HOURS       DAYS        YEARS
                    -----------------------------------------------------------
   TIME STEP LENGTH  86400.      1440.0      24.000      1.0000     2.73785E-03
 STRESS PERIOD TIME  86400.      1440.0      24.000      1.0000     2.73785E-03
         TOTAL TIME 2.78208E+07 4.63680E+05  7728.0      322.00     0.88159    


end timestep


start timestep kper="323" kstp="1" mode="normal"

 #Stressperiod Save Options

 BEGIN READING OUTPUT CONTROL FOR STRESS PERIOD 323
      ALL TIME STEPS WILL BE SAVED
      ALL TIME STEPS WILL BE SAVED

 END READING OUTPUT CONTROL FOR STRESS PERIOD 323


 PROCESSING STORAGE PERIOD DATA
 END PROCESSING STORAGE PERIOD DATA


 STRESS PERIOD 323 IS TRANSIENT


 REUSING DRNS FROM LAST STRESS PERIOD

 REUSING RIVS FROM LAST STRESS PERIOD

 REUSING RIVS FROM LAST STRESS PERIOD

 REUSING RCHS FROM LAST STRESS PERIOD
 UBDSV06 SAVING              DRN IN MODEL GWF_1            PACKAGE GWF_1           CONNECTED TO MODEL GWF_1            PACKAGE DRN_SYS1         ON UNIT   1018 AT TIME STEP      1, STRESS PERIOD    323
 UBDSV06 SAVING              RIV IN MODEL GWF_1            PACKAGE GWF_1           CONNECTED TO MODEL GWF_1            PACKAGE RIV_SYS1         ON UNIT   1018 AT TIME STEP      1, STRESS PERIOD    323
 UBDSV06 SAVING              RIV IN MODEL GWF_1            PACKAGE GWF_1           CONNECTED TO MODEL GWF_1            PACKAGE RIV_SYS2         ON UNIT   1018 AT TIME STEP      1, STRESS PERIOD    323
 UBDSV06 SAVING              RCH IN MODEL GWF_1            PACKAGE GWF_1           CONNECTED TO MODEL GWF_1            PACKAGE RCH_MSW          ON UNIT   1018 AT TIME STEP      1, STRESS PERIOD    323

 HEAD WILL BE SAVED ON UNIT 1017 AT END OF TIME STEP    1, STRESS PERIOD  323


  VOLUME BUDGET FOR ENTIRE MODEL AT END OF TIME STEP    1, STRESS PERIOD 323
  ---------------------------------------------------------------------------------------------------

     CUMULATIVE VOLUME      L**3       RATES FOR THIS TIME STEP      L**3/T          PACKAGE NAME    
     ------------------                 ------------------------                     ----------------

           IN:                                      IN:
           ---                                      ---
              STO-SS =      226723.0860                STO-SS =         172.5935     STORAGE                          
                 DRN =           0.0000                   DRN =           0.0000     DRN_SYS1                         
                 RIV =      258221.1606                   RIV =         576.9124     RIV_SYS1                         
                 RIV =           0.0000                   RIV =           0.0000     RIV_SYS2                         
                 RCH =      422692.5670                   RCH =        2161.7776     RCH_MSW                          

            TOTAL IN =      907636.8136              TOTAL IN =        2911.2835

          OUT:                                     OUT:
          ----                                     ----
              STO-SS =       50208.5173                STO-SS =           0.0000     STORAGE                          
                 DRN =       16762.3060                   DRN =          65.0247     DRN_SYS1                         
                 RIV =      786613.1951                   RIV =        2666.2775     RIV_SYS1                         
                 RIV =       47564.3717                   RIV =         179.9827     RIV_SYS2                         
                 RCH =        6488.4405                   RCH =           0.0000     RCH_MSW                          

           TOTAL OUT =      907636.8306             TOTAL OUT =        2911.2849

            IN - OUT =      -1.6956E-02              IN - OUT =      -1.4106E-03

 PERCENT DISCREPANCY =          -0.00     PERCENT DISCREPANCY =          -0.00




         TIME SUMMARY AT END OF TIME STEP    1 IN STRESS PERIOD  323
                    SECONDS     MINUTES      HOURS       DAYS        YEARS
                    -----------------------------------------------------------
   TIME STEP LENGTH  86400.      1440.0      24.000      1.0000     2.73785E-03
 STRESS PERIOD TIME  86400.      1440.0      24.000      1.0000     2.73785E-03
         TOTAL TIME 2.79072E+07 4.65120E+05  7752.0      323.00     0.88433    


end timestep


start timestep kper="324" kstp="1" mode="normal"

 #Stressperiod Save Options

 BEGIN READING OUTPUT CONTROL FOR STRESS PERIOD 324
      ALL TIME STEPS WILL BE SAVED
      ALL TIME STEPS WILL BE SAVED

 END READING OUTPUT CONTROL FOR STRESS PERIOD 324


 PROCESSING STORAGE PERIOD DATA
 END PROCESSING STORAGE PERIOD DATA


 STRESS PERIOD 324 IS TRANSIENT


 REUSING DRNS FROM LAST STRESS PERIOD

 REUSING RIVS FROM LAST STRESS PERIOD

 REUSING RIVS FROM LAST STRESS PERIOD

 REUSING RCHS FROM LAST STRESS PERIOD
 UBDSV06 SAVING              DRN IN MODEL GWF_1            PACKAGE GWF_1           CONNECTED TO MODEL GWF_1            PACKAGE DRN_SYS1         ON UNIT   1018 AT TIME STEP      1, STRESS PERIOD    324
 UBDSV06 SAVING              RIV IN MODEL GWF_1            PACKAGE GWF_1           CONNECTED TO MODEL GWF_1            PACKAGE RIV_SYS1         ON UNIT   1018 AT TIME STEP      1, STRESS PERIOD    324
 UBDSV06 SAVING              RIV IN MODEL GWF_1            PACKAGE GWF_1           CONNECTED TO MODEL GWF_1            PACKAGE RIV_SYS2         ON UNIT   1018 AT TIME STEP      1, STRESS PERIOD    324
 UBDSV06 SAVING              RCH IN MODEL GWF_1            PACKAGE GWF_1           CONNECTED TO MODEL GWF_1            PACKAGE RCH_MSW          ON UNIT   1018 AT TIME STEP      1, STRESS PERIOD    324

 HEAD WILL BE SAVED ON UNIT 1017 AT END OF TIME STEP    1, STRESS PERIOD  324


  VOLUME BUDGET FOR ENTIRE MODEL AT END OF TIME STEP    1, STRESS PERIOD 324
  ---------------------------------------------------------------------------------------------------

     CUMULATIVE VOLUME      L**3       RATES FOR THIS TIME STEP      L**3/T          PACKAGE NAME    
     ------------------                 ------------------------                     ----------------

           IN:                                      IN:
           ---                                      ---
              STO-SS =      226884.6713                STO-SS =         161.5853     STORAGE                          
                 DRN =           0.0000                   DRN =           0.0000     DRN_SYS1                         
                 RIV =      258800.8427                   RIV =         579.6820     RIV_SYS1                         
                 RIV =           0.0000                   RIV =           0.0000     RIV_SYS2                         
                 RCH =      424855.2628                   RCH =        2162.6959     RCH_MSW                          

            TOTAL IN =      910540.7768              TOTAL IN =        2903.9632

          OUT:                                     OUT:
          ----                                     ----
              STO-SS =       50208.5173                STO-SS =           0.0000     STORAGE                          
                 DRN =       16827.0108                   DRN =          64.7048     DRN_SYS1                         
                 RIV =      789273.3320                   RIV =        2660.1369     RIV_SYS1                         
                 RIV =       47743.4950                   RIV =         179.1233     RIV_SYS2                         
                 RCH =        6488.4405                   RCH =           0.0000     RCH_MSW                          

           TOTAL OUT =      910540.7955             TOTAL OUT =        2903.9650

            IN - OUT =      -1.8675E-02              IN - OUT =      -1.7183E-03

 PERCENT DISCREPANCY =          -0.00     PERCENT DISCREPANCY =          -0.00




         TIME SUMMARY AT END OF TIME STEP    1 IN STRESS PERIOD  324
                    SECONDS     MINUTES      HOURS       DAYS        YEARS
                    -----------------------------------------------------------
   TIME STEP LENGTH  86400.      1440.0      24.000      1.0000     2.73785E-03
 STRESS PERIOD TIME  86400.      1440.0      24.000      1.0000     2.73785E-03
         TOTAL TIME 2.79936E+07 4.66560E+05  7776.0      324.00     0.88706    


end timestep


start timestep kper="325" kstp="1" mode="normal"

 #Stressperiod Save Options

 BEGIN READING OUTPUT CONTROL FOR STRESS PERIOD 325
      ALL TIME STEPS WILL BE SAVED
      ALL TIME STEPS WILL BE SAVED

 END READING OUTPUT CONTROL FOR STRESS PERIOD 325


 PROCESSING STORAGE PERIOD DATA
 END PROCESSING STORAGE PERIOD DATA


 STRESS PERIOD 325 IS TRANSIENT


 REUSING DRNS FROM LAST STRESS PERIOD

 REUSING RIVS FROM LAST STRESS PERIOD

 REUSING RIVS FROM LAST STRESS PERIOD

 REUSING RCHS FROM LAST STRESS PERIOD
 UBDSV06 SAVING              DRN IN MODEL GWF_1            PACKAGE GWF_1           CONNECTED TO MODEL GWF_1            PACKAGE DRN_SYS1         ON UNIT   1018 AT TIME STEP      1, STRESS PERIOD    325
 UBDSV06 SAVING              RIV IN MODEL GWF_1            PACKAGE GWF_1           CONNECTED TO MODEL GWF_1            PACKAGE RIV_SYS1         ON UNIT   1018 AT TIME STEP      1, STRESS PERIOD    325
 UBDSV06 SAVING              RIV IN MODEL GWF_1            PACKAGE GWF_1           CONNECTED TO MODEL GWF_1            PACKAGE RIV_SYS2         ON UNIT   1018 AT TIME STEP      1, STRESS PERIOD    325
 UBDSV06 SAVING              RCH IN MODEL GWF_1            PACKAGE GWF_1           CONNECTED TO MODEL GWF_1            PACKAGE RCH_MSW          ON UNIT   1018 AT TIME STEP      1, STRESS PERIOD    325

 HEAD WILL BE SAVED ON UNIT 1017 AT END OF TIME STEP    1, STRESS PERIOD  325


  VOLUME BUDGET FOR ENTIRE MODEL AT END OF TIME STEP    1, STRESS PERIOD 325
  ---------------------------------------------------------------------------------------------------

     CUMULATIVE VOLUME      L**3       RATES FOR THIS TIME STEP      L**3/T          PACKAGE NAME    
     ------------------                 ------------------------                     ----------------

           IN:                                      IN:
           ---                                      ---
              STO-SS =      227070.6513                STO-SS =         185.9800     STORAGE                          
                 DRN =           0.0000                   DRN =           0.0000     DRN_SYS1                         
                 RIV =      259384.5961                   RIV =         583.7534     RIV_SYS1                         
                 RIV =           0.0000                   RIV =           0.0000     RIV_SYS2                         
                 RCH =      426977.7192                   RCH =        2122.4564     RCH_MSW                          

            TOTAL IN =      913432.9666              TOTAL IN =        2892.1898

          OUT:                                     OUT:
          ----                                     ----
              STO-SS =       50208.5173                STO-SS =           0.0000     STORAGE                          
                 DRN =       16891.3640                   DRN =          64.3532     DRN_SYS1                         
                 RIV =      791922.9947                   RIV =        2649.6626     RIV_SYS1                         
                 RIV =       47921.6699                   RIV =         178.1749     RIV_SYS2                         
                 RCH =        6488.4405                   RCH =           0.0000     RCH_MSW                          

           TOTAL OUT =      913432.9863             TOTAL OUT =        2892.1908

            IN - OUT =      -1.9681E-02              IN - OUT =      -1.0067E-03

 PERCENT DISCREPANCY =          -0.00     PERCENT DISCREPANCY =          -0.00




         TIME SUMMARY AT END OF TIME STEP    1 IN STRESS PERIOD  325
                    SECONDS     MINUTES      HOURS       DAYS        YEARS
                    -----------------------------------------------------------
   TIME STEP LENGTH  86400.      1440.0      24.000      1.0000     2.73785E-03
 STRESS PERIOD TIME  86400.      1440.0      24.000      1.0000     2.73785E-03
         TOTAL TIME 2.80800E+07 4.68000E+05  7800.0      325.00     0.88980    


end timestep


start timestep kper="326" kstp="1" mode="normal"

 #Stressperiod Save Options

 BEGIN READING OUTPUT CONTROL FOR STRESS PERIOD 326
      ALL TIME STEPS WILL BE SAVED
      ALL TIME STEPS WILL BE SAVED

 END READING OUTPUT CONTROL FOR STRESS PERIOD 326


 PROCESSING STORAGE PERIOD DATA
 END PROCESSING STORAGE PERIOD DATA


 STRESS PERIOD 326 IS TRANSIENT


 REUSING DRNS FROM LAST STRESS PERIOD

 REUSING RIVS FROM LAST STRESS PERIOD

 REUSING RIVS FROM LAST STRESS PERIOD

 REUSING RCHS FROM LAST STRESS PERIOD
 UBDSV06 SAVING              DRN IN MODEL GWF_1            PACKAGE GWF_1           CONNECTED TO MODEL GWF_1            PACKAGE DRN_SYS1         ON UNIT   1018 AT TIME STEP      1, STRESS PERIOD    326
 UBDSV06 SAVING              RIV IN MODEL GWF_1            PACKAGE GWF_1           CONNECTED TO MODEL GWF_1            PACKAGE RIV_SYS1         ON UNIT   1018 AT TIME STEP      1, STRESS PERIOD    326
 UBDSV06 SAVING              RIV IN MODEL GWF_1            PACKAGE GWF_1           CONNECTED TO MODEL GWF_1            PACKAGE RIV_SYS2         ON UNIT   1018 AT TIME STEP      1, STRESS PERIOD    326
 UBDSV06 SAVING              RCH IN MODEL GWF_1            PACKAGE GWF_1           CONNECTED TO MODEL GWF_1            PACKAGE RCH_MSW          ON UNIT   1018 AT TIME STEP      1, STRESS PERIOD    326

 HEAD WILL BE SAVED ON UNIT 1017 AT END OF TIME STEP    1, STRESS PERIOD  326


  VOLUME BUDGET FOR ENTIRE MODEL AT END OF TIME STEP    1, STRESS PERIOD 326
  ---------------------------------------------------------------------------------------------------

     CUMULATIVE VOLUME      L**3       RATES FOR THIS TIME STEP      L**3/T          PACKAGE NAME    
     ------------------                 ------------------------                     ----------------

           IN:                                      IN:
           ---                                      ---
              STO-SS =      227298.3564                STO-SS =         227.7051     STORAGE                          
                 DRN =           0.0000                   DRN =           0.0000     DRN_SYS1                         
                 RIV =      259974.1754                   RIV =         589.5793     RIV_SYS1                         
                 RIV =           0.0000                   RIV =           0.0000     RIV_SYS2                         
                 RCH =      429035.0194                   RCH =        2057.3003     RCH_MSW                          

            TOTAL IN =      916307.5512              TOTAL IN =        2874.5847

          OUT:                                     OUT:
          ----                                     ----
              STO-SS =       50208.5173                STO-SS =           0.0000     STORAGE                          
                 DRN =       16955.3065                   DRN =          63.9425     DRN_SYS1                         
                 RIV =      794556.5725                   RIV =        2633.5779     RIV_SYS1                         
                 RIV =       48098.7344                   RIV =         177.0645     RIV_SYS2                         
                 RCH =        6488.4405                   RCH =           0.0000     RCH_MSW                          

           TOTAL OUT =      916307.5711             TOTAL OUT =        2874.5848

            IN - OUT =      -1.9864E-02              IN - OUT =      -1.8225E-04

 PERCENT DISCREPANCY =          -0.00     PERCENT DISCREPANCY =          -0.00




         TIME SUMMARY AT END OF TIME STEP    1 IN STRESS PERIOD  326
                    SECONDS     MINUTES      HOURS       DAYS        YEARS
                    -----------------------------------------------------------
   TIME STEP LENGTH  86400.      1440.0      24.000      1.0000     2.73785E-03
 STRESS PERIOD TIME  86400.      1440.0      24.000      1.0000     2.73785E-03
         TOTAL TIME 2.81664E+07 4.69440E+05  7824.0      326.00     0.89254    


end timestep


start timestep kper="327" kstp="1" mode="normal"

 #Stressperiod Save Options

 BEGIN READING OUTPUT CONTROL FOR STRESS PERIOD 327
      ALL TIME STEPS WILL BE SAVED
      ALL TIME STEPS WILL BE SAVED

 END READING OUTPUT CONTROL FOR STRESS PERIOD 327


 PROCESSING STORAGE PERIOD DATA
 END PROCESSING STORAGE PERIOD DATA


 STRESS PERIOD 327 IS TRANSIENT


 REUSING DRNS FROM LAST STRESS PERIOD

 REUSING RIVS FROM LAST STRESS PERIOD

 REUSING RIVS FROM LAST STRESS PERIOD

 REUSING RCHS FROM LAST STRESS PERIOD
 UBDSV06 SAVING              DRN IN MODEL GWF_1            PACKAGE GWF_1           CONNECTED TO MODEL GWF_1            PACKAGE DRN_SYS1         ON UNIT   1018 AT TIME STEP      1, STRESS PERIOD    327
 UBDSV06 SAVING              RIV IN MODEL GWF_1            PACKAGE GWF_1           CONNECTED TO MODEL GWF_1            PACKAGE RIV_SYS1         ON UNIT   1018 AT TIME STEP      1, STRESS PERIOD    327
 UBDSV06 SAVING              RIV IN MODEL GWF_1            PACKAGE GWF_1           CONNECTED TO MODEL GWF_1            PACKAGE RIV_SYS2         ON UNIT   1018 AT TIME STEP      1, STRESS PERIOD    327
 UBDSV06 SAVING              RCH IN MODEL GWF_1            PACKAGE GWF_1           CONNECTED TO MODEL GWF_1            PACKAGE RCH_MSW          ON UNIT   1018 AT TIME STEP      1, STRESS PERIOD    327

 HEAD WILL BE SAVED ON UNIT 1017 AT END OF TIME STEP    1, STRESS PERIOD  327


  VOLUME BUDGET FOR ENTIRE MODEL AT END OF TIME STEP    1, STRESS PERIOD 327
  ---------------------------------------------------------------------------------------------------

     CUMULATIVE VOLUME      L**3       RATES FOR THIS TIME STEP      L**3/T          PACKAGE NAME    
     ------------------                 ------------------------                     ----------------

           IN:                                      IN:
           ---                                      ---
              STO-SS =      227572.9414                STO-SS =         274.5849     STORAGE                          
                 DRN =           0.0000                   DRN =           0.0000     DRN_SYS1                         
                 RIV =      260571.3185                   RIV =         597.1431     RIV_SYS1                         
                 RIV =           0.0000                   RIV =           0.0000     RIV_SYS2                         
                 RCH =      431015.0555                   RCH =        1980.0361     RCH_MSW                          

            TOTAL IN =      919159.3153              TOTAL IN =        2851.7640

          OUT:                                     OUT:
          ----                                     ----
              STO-SS =       50208.5173                STO-SS =           0.0000     STORAGE                          
                 DRN =       17018.7657                   DRN =          63.4593     DRN_SYS1                         
                 RIV =      797169.1218                   RIV =        2612.5493     RIV_SYS1                         
                 RIV =       48274.4896                   RIV =         175.7552     RIV_SYS2                         
                 RCH =        6488.4405                   RCH =           0.0000     RCH_MSW                          

           TOTAL OUT =      919159.3349             TOTAL OUT =        2851.7638

            IN - OUT =      -1.9596E-02              IN - OUT =       2.6751E-04

 PERCENT DISCREPANCY =          -0.00     PERCENT DISCREPANCY =           0.00




         TIME SUMMARY AT END OF TIME STEP    1 IN STRESS PERIOD  327
                    SECONDS     MINUTES      HOURS       DAYS        YEARS
                    -----------------------------------------------------------
   TIME STEP LENGTH  86400.      1440.0      24.000      1.0000     2.73785E-03
 STRESS PERIOD TIME  86400.      1440.0      24.000      1.0000     2.73785E-03
         TOTAL TIME 2.82528E+07 4.70880E+05  7848.0      327.00     0.89528    


end timestep


start timestep kper="328" kstp="1" mode="normal"

 #Stressperiod Save Options

 BEGIN READING OUTPUT CONTROL FOR STRESS PERIOD 328
      ALL TIME STEPS WILL BE SAVED
      ALL TIME STEPS WILL BE SAVED

 END READING OUTPUT CONTROL FOR STRESS PERIOD 328


 PROCESSING STORAGE PERIOD DATA
 END PROCESSING STORAGE PERIOD DATA


 STRESS PERIOD 328 IS TRANSIENT


 REUSING DRNS FROM LAST STRESS PERIOD

 REUSING RIVS FROM LAST STRESS PERIOD

 REUSING RIVS FROM LAST STRESS PERIOD

 REUSING RCHS FROM LAST STRESS PERIOD
 UBDSV06 SAVING              DRN IN MODEL GWF_1            PACKAGE GWF_1           CONNECTED TO MODEL GWF_1            PACKAGE DRN_SYS1         ON UNIT   1018 AT TIME STEP      1, STRESS PERIOD    328
 UBDSV06 SAVING              RIV IN MODEL GWF_1            PACKAGE GWF_1           CONNECTED TO MODEL GWF_1            PACKAGE RIV_SYS1         ON UNIT   1018 AT TIME STEP      1, STRESS PERIOD    328
 UBDSV06 SAVING              RIV IN MODEL GWF_1            PACKAGE GWF_1           CONNECTED TO MODEL GWF_1            PACKAGE RIV_SYS2         ON UNIT   1018 AT TIME STEP      1, STRESS PERIOD    328
 UBDSV06 SAVING              RCH IN MODEL GWF_1            PACKAGE GWF_1           CONNECTED TO MODEL GWF_1            PACKAGE RCH_MSW          ON UNIT   1018 AT TIME STEP      1, STRESS PERIOD    328

 HEAD WILL BE SAVED ON UNIT 1017 AT END OF TIME STEP    1, STRESS PERIOD  328


  VOLUME BUDGET FOR ENTIRE MODEL AT END OF TIME STEP    1, STRESS PERIOD 328
  ---------------------------------------------------------------------------------------------------

     CUMULATIVE VOLUME      L**3       RATES FOR THIS TIME STEP      L**3/T          PACKAGE NAME    
     ------------------                 ------------------------                     ----------------

           IN:                                      IN:
           ---                                      ---
              STO-SS =      227890.4316                STO-SS =         317.4902     STORAGE                          
                 DRN =           0.0000                   DRN =           0.0000     DRN_SYS1                         
                 RIV =      261177.1723                   RIV =         605.8538     RIV_SYS1                         
                 RIV =           0.0000                   RIV =           0.0000     RIV_SYS2                         
                 RCH =      432916.9747                   RCH =        1901.9192     RCH_MSW                          

            TOTAL IN =      921984.5785              TOTAL IN =        2825.2632

          OUT:                                     OUT:
          ----                                     ----
              STO-SS =       50208.5173                STO-SS =           0.0000     STORAGE                          
                 DRN =       17081.6721                   DRN =          62.9064     DRN_SYS1                         
                 RIV =      799757.2229                   RIV =        2588.1011     RIV_SYS1                         
                 RIV =       48448.7446                   RIV =         174.2550     RIV_SYS2                         
                 RCH =        6488.4405                   RCH =           0.0000     RCH_MSW                          

           TOTAL OUT =      921984.5973             TOTAL OUT =        2825.2624

            IN - OUT =      -1.8735E-02              IN - OUT =       8.6144E-04

 PERCENT DISCREPANCY =          -0.00     PERCENT DISCREPANCY =           0.00




         TIME SUMMARY AT END OF TIME STEP    1 IN STRESS PERIOD  328
                    SECONDS     MINUTES      HOURS       DAYS        YEARS
                    -----------------------------------------------------------
   TIME STEP LENGTH  86400.      1440.0      24.000      1.0000     2.73785E-03
 STRESS PERIOD TIME  86400.      1440.0      24.000      1.0000     2.73785E-03
         TOTAL TIME 2.83392E+07 4.72320E+05  7872.0      328.00     0.89802    


end timestep


start timestep kper="329" kstp="1" mode="normal"

 #Stressperiod Save Options

 BEGIN READING OUTPUT CONTROL FOR STRESS PERIOD 329
      ALL TIME STEPS WILL BE SAVED
      ALL TIME STEPS WILL BE SAVED

 END READING OUTPUT CONTROL FOR STRESS PERIOD 329


 PROCESSING STORAGE PERIOD DATA
 END PROCESSING STORAGE PERIOD DATA


 STRESS PERIOD 329 IS TRANSIENT


 REUSING DRNS FROM LAST STRESS PERIOD

 REUSING RIVS FROM LAST STRESS PERIOD

 REUSING RIVS FROM LAST STRESS PERIOD

 REUSING RCHS FROM LAST STRESS PERIOD
 UBDSV06 SAVING              DRN IN MODEL GWF_1            PACKAGE GWF_1           CONNECTED TO MODEL GWF_1            PACKAGE DRN_SYS1         ON UNIT   1018 AT TIME STEP      1, STRESS PERIOD    329
 UBDSV06 SAVING              RIV IN MODEL GWF_1            PACKAGE GWF_1           CONNECTED TO MODEL GWF_1            PACKAGE RIV_SYS1         ON UNIT   1018 AT TIME STEP      1, STRESS PERIOD    329
 UBDSV06 SAVING              RIV IN MODEL GWF_1            PACKAGE GWF_1           CONNECTED TO MODEL GWF_1            PACKAGE RIV_SYS2         ON UNIT   1018 AT TIME STEP      1, STRESS PERIOD    329
 UBDSV06 SAVING              RCH IN MODEL GWF_1            PACKAGE GWF_1           CONNECTED TO MODEL GWF_1            PACKAGE RCH_MSW          ON UNIT   1018 AT TIME STEP      1, STRESS PERIOD    329

 HEAD WILL BE SAVED ON UNIT 1017 AT END OF TIME STEP    1, STRESS PERIOD  329


  VOLUME BUDGET FOR ENTIRE MODEL AT END OF TIME STEP    1, STRESS PERIOD 329
  ---------------------------------------------------------------------------------------------------

     CUMULATIVE VOLUME      L**3       RATES FOR THIS TIME STEP      L**3/T          PACKAGE NAME    
     ------------------                 ------------------------                     ----------------

           IN:                                      IN:
           ---                                      ---
              STO-SS =      228252.6479                STO-SS =         362.2163     STORAGE                          
                 DRN =           0.0000                   DRN =           0.0000     DRN_SYS1                         
                 RIV =      261792.8238                   RIV =         615.6516     RIV_SYS1                         
                 RIV =           0.0000                   RIV =           0.0000     RIV_SYS2                         
                 RCH =      434734.5905                   RCH =        1817.6159     RCH_MSW                          

            TOTAL IN =      924780.0622              TOTAL IN =        2795.4837

          OUT:                                     OUT:
          ----                                     ----
              STO-SS =       50208.5173                STO-SS =           0.0000     STORAGE                          
                 DRN =       17143.9516                   DRN =          62.2795     DRN_SYS1                         
                 RIV =      802317.8720                   RIV =        2560.6491     RIV_SYS1                         
                 RIV =       48621.2994                   RIV =         172.5548     RIV_SYS2                         
                 RCH =        6488.4405                   RCH =           0.0000     RCH_MSW                          

           TOTAL OUT =      924780.0807             TOTAL OUT =        2795.4834

            IN - OUT =      -1.8452E-02              IN - OUT =       2.8242E-04

 PERCENT DISCREPANCY =          -0.00     PERCENT DISCREPANCY =           0.00




         TIME SUMMARY AT END OF TIME STEP    1 IN STRESS PERIOD  329
                    SECONDS     MINUTES      HOURS       DAYS        YEARS
                    -----------------------------------------------------------
   TIME STEP LENGTH  86400.      1440.0      24.000      1.0000     2.73785E-03
 STRESS PERIOD TIME  86400.      1440.0      24.000      1.0000     2.73785E-03
         TOTAL TIME 2.84256E+07 4.73760E+05  7896.0      329.00     0.90075    


end timestep


start timestep kper="330" kstp="1" mode="normal"

 #Stressperiod Save Options

 BEGIN READING OUTPUT CONTROL FOR STRESS PERIOD 330
      ALL TIME STEPS WILL BE SAVED
      ALL TIME STEPS WILL BE SAVED

 END READING OUTPUT CONTROL FOR STRESS PERIOD 330


 PROCESSING STORAGE PERIOD DATA
 END PROCESSING STORAGE PERIOD DATA


 STRESS PERIOD 330 IS TRANSIENT


 REUSING DRNS FROM LAST STRESS PERIOD

 REUSING RIVS FROM LAST STRESS PERIOD

 REUSING RIVS FROM LAST STRESS PERIOD

 REUSING RCHS FROM LAST STRESS PERIOD
 UBDSV06 SAVING              DRN IN MODEL GWF_1            PACKAGE GWF_1           CONNECTED TO MODEL GWF_1            PACKAGE DRN_SYS1         ON UNIT   1018 AT TIME STEP      1, STRESS PERIOD    330
 UBDSV06 SAVING              RIV IN MODEL GWF_1            PACKAGE GWF_1           CONNECTED TO MODEL GWF_1            PACKAGE RIV_SYS1         ON UNIT   1018 AT TIME STEP      1, STRESS PERIOD    330
 UBDSV06 SAVING              RIV IN MODEL GWF_1            PACKAGE GWF_1           CONNECTED TO MODEL GWF_1            PACKAGE RIV_SYS2         ON UNIT   1018 AT TIME STEP      1, STRESS PERIOD    330
 UBDSV06 SAVING              RCH IN MODEL GWF_1            PACKAGE GWF_1           CONNECTED TO MODEL GWF_1            PACKAGE RCH_MSW          ON UNIT   1018 AT TIME STEP      1, STRESS PERIOD    330

 HEAD WILL BE SAVED ON UNIT 1017 AT END OF TIME STEP    1, STRESS PERIOD  330


  VOLUME BUDGET FOR ENTIRE MODEL AT END OF TIME STEP    1, STRESS PERIOD 330
  ---------------------------------------------------------------------------------------------------

     CUMULATIVE VOLUME      L**3       RATES FOR THIS TIME STEP      L**3/T          PACKAGE NAME    
     ------------------                 ------------------------                     ----------------

           IN:                                      IN:
           ---                                      ---
              STO-SS =      228645.5209                STO-SS =         392.8730     STORAGE                          
                 DRN =           0.0000                   DRN =           0.0000     DRN_SYS1                         
                 RIV =      262418.8640                   RIV =         626.0401     RIV_SYS1                         
                 RIV =           0.0000                   RIV =           0.0000     RIV_SYS2                         
                 RCH =      436481.2918                   RCH =        1746.7013     RCH_MSW                          

            TOTAL IN =      927545.6767              TOTAL IN =        2765.6145

          OUT:                                     OUT:
          ----                                     ----
              STO-SS =       50208.5173                STO-SS =           0.0000     STORAGE                          
                 DRN =       17205.5457                   DRN =          61.5941     DRN_SYS1                         
                 RIV =      804851.1897                   RIV =        2533.3177     RIV_SYS1                         
                 RIV =       48792.0016                   RIV =         170.7022     RIV_SYS2                         
                 RCH =        6488.4405                   RCH =           0.0000     RCH_MSW                          

           TOTAL OUT =      927545.6947             TOTAL OUT =        2765.6140

            IN - OUT =      -1.8004E-02              IN - OUT =       4.4873E-04

 PERCENT DISCREPANCY =          -0.00     PERCENT DISCREPANCY =           0.00




         TIME SUMMARY AT END OF TIME STEP    1 IN STRESS PERIOD  330
                    SECONDS     MINUTES      HOURS       DAYS        YEARS
                    -----------------------------------------------------------
   TIME STEP LENGTH  86400.      1440.0      24.000      1.0000     2.73785E-03
 STRESS PERIOD TIME  86400.      1440.0      24.000      1.0000     2.73785E-03
         TOTAL TIME 2.85120E+07 4.75200E+05  7920.0      330.00     0.90349    


end timestep


start timestep kper="331" kstp="1" mode="normal"

 #Stressperiod Save Options

 BEGIN READING OUTPUT CONTROL FOR STRESS PERIOD 331
      ALL TIME STEPS WILL BE SAVED
      ALL TIME STEPS WILL BE SAVED

 END READING OUTPUT CONTROL FOR STRESS PERIOD 331


 PROCESSING STORAGE PERIOD DATA
 END PROCESSING STORAGE PERIOD DATA


 STRESS PERIOD 331 IS TRANSIENT


 REUSING DRNS FROM LAST STRESS PERIOD

 REUSING RIVS FROM LAST STRESS PERIOD

 REUSING RIVS FROM LAST STRESS PERIOD

 REUSING RCHS FROM LAST STRESS PERIOD
 UBDSV06 SAVING              DRN IN MODEL GWF_1            PACKAGE GWF_1           CONNECTED TO MODEL GWF_1            PACKAGE DRN_SYS1         ON UNIT   1018 AT TIME STEP      1, STRESS PERIOD    331
 UBDSV06 SAVING              RIV IN MODEL GWF_1            PACKAGE GWF_1           CONNECTED TO MODEL GWF_1            PACKAGE RIV_SYS1         ON UNIT   1018 AT TIME STEP      1, STRESS PERIOD    331
 UBDSV06 SAVING              RIV IN MODEL GWF_1            PACKAGE GWF_1           CONNECTED TO MODEL GWF_1            PACKAGE RIV_SYS2         ON UNIT   1018 AT TIME STEP      1, STRESS PERIOD    331
 UBDSV06 SAVING              RCH IN MODEL GWF_1            PACKAGE GWF_1           CONNECTED TO MODEL GWF_1            PACKAGE RCH_MSW          ON UNIT   1018 AT TIME STEP      1, STRESS PERIOD    331

 HEAD WILL BE SAVED ON UNIT 1017 AT END OF TIME STEP    1, STRESS PERIOD  331


  VOLUME BUDGET FOR ENTIRE MODEL AT END OF TIME STEP    1, STRESS PERIOD 331
  ---------------------------------------------------------------------------------------------------

     CUMULATIVE VOLUME      L**3       RATES FOR THIS TIME STEP      L**3/T          PACKAGE NAME    
     ------------------                 ------------------------                     ----------------

           IN:                                      IN:
           ---                                      ---
              STO-SS =      229067.6865                STO-SS =         422.1656     STORAGE                          
                 DRN =           0.0000                   DRN =           0.0000     DRN_SYS1                         
                 RIV =      263056.0961                   RIV =         637.2321     RIV_SYS1                         
                 RIV =           0.0000                   RIV =           0.0000     RIV_SYS2                         
                 RCH =      438156.5833                   RCH =        1675.2915     RCH_MSW                          

            TOTAL IN =      930280.3659              TOTAL IN =        2734.6892

          OUT:                                     OUT:
          ----                                     ----
              STO-SS =       50208.5173                STO-SS =           0.0000     STORAGE                          
                 DRN =       17266.4018                   DRN =          60.8560     DRN_SYS1                         
                 RIV =      807356.3084                   RIV =        2505.1188     RIV_SYS1                         
                 RIV =       48960.7154                   RIV =         168.7138     RIV_SYS2                         
                 RCH =        6488.4405                   RCH =           0.0000     RCH_MSW                          

           TOTAL OUT =      930280.3833             TOTAL OUT =        2734.6886

            IN - OUT =      -1.7424E-02              IN - OUT =       5.7966E-04

 PERCENT DISCREPANCY =          -0.00     PERCENT DISCREPANCY =           0.00




         TIME SUMMARY AT END OF TIME STEP    1 IN STRESS PERIOD  331
                    SECONDS     MINUTES      HOURS       DAYS        YEARS
                    -----------------------------------------------------------
   TIME STEP LENGTH  86400.      1440.0      24.000      1.0000     2.73785E-03
 STRESS PERIOD TIME  86400.      1440.0      24.000      1.0000     2.73785E-03
         TOTAL TIME 2.85984E+07 4.76640E+05  7944.0      331.00     0.90623    


end timestep


start timestep kper="332" kstp="1" mode="normal"

 #Stressperiod Save Options

 BEGIN READING OUTPUT CONTROL FOR STRESS PERIOD 332
      ALL TIME STEPS WILL BE SAVED
      ALL TIME STEPS WILL BE SAVED

 END READING OUTPUT CONTROL FOR STRESS PERIOD 332


 PROCESSING STORAGE PERIOD DATA
 END PROCESSING STORAGE PERIOD DATA


 STRESS PERIOD 332 IS TRANSIENT


 REUSING DRNS FROM LAST STRESS PERIOD

 REUSING RIVS FROM LAST STRESS PERIOD

 REUSING RIVS FROM LAST STRESS PERIOD

 REUSING RCHS FROM LAST STRESS PERIOD
 UBDSV06 SAVING              DRN IN MODEL GWF_1            PACKAGE GWF_1           CONNECTED TO MODEL GWF_1            PACKAGE DRN_SYS1         ON UNIT   1018 AT TIME STEP      1, STRESS PERIOD    332
 UBDSV06 SAVING              RIV IN MODEL GWF_1            PACKAGE GWF_1           CONNECTED TO MODEL GWF_1            PACKAGE RIV_SYS1         ON UNIT   1018 AT TIME STEP      1, STRESS PERIOD    332
 UBDSV06 SAVING              RIV IN MODEL GWF_1            PACKAGE GWF_1           CONNECTED TO MODEL GWF_1            PACKAGE RIV_SYS2         ON UNIT   1018 AT TIME STEP      1, STRESS PERIOD    332
 UBDSV06 SAVING              RCH IN MODEL GWF_1            PACKAGE GWF_1           CONNECTED TO MODEL GWF_1            PACKAGE RCH_MSW          ON UNIT   1018 AT TIME STEP      1, STRESS PERIOD    332

 HEAD WILL BE SAVED ON UNIT 1017 AT END OF TIME STEP    1, STRESS PERIOD  332


  VOLUME BUDGET FOR ENTIRE MODEL AT END OF TIME STEP    1, STRESS PERIOD 332
  ---------------------------------------------------------------------------------------------------

     CUMULATIVE VOLUME      L**3       RATES FOR THIS TIME STEP      L**3/T          PACKAGE NAME    
     ------------------                 ------------------------                     ----------------

           IN:                                      IN:
           ---                                      ---
              STO-SS =      229513.8127                STO-SS =         446.1262     STORAGE                          
                 DRN =           0.0000                   DRN =           0.0000     DRN_SYS1                         
                 RIV =      263704.6814                   RIV =         648.5853     RIV_SYS1                         
                 RIV =           0.0000                   RIV =           0.0000     RIV_SYS2                         
                 RCH =      439765.2154                   RCH =        1608.6321     RCH_MSW                          

            TOTAL IN =      932983.7095              TOTAL IN =        2703.3436

          OUT:                                     OUT:
          ----                                     ----
              STO-SS =       50208.5173                STO-SS =           0.0000     STORAGE                          
                 DRN =       17326.4766                   DRN =          60.0748     DRN_SYS1                         
                 RIV =      809832.9627                   RIV =        2476.6542     RIV_SYS1                         
                 RIV =       49127.3298                   RIV =         166.6144     RIV_SYS2                         
                 RCH =        6488.4405                   RCH =           0.0000     RCH_MSW                          

           TOTAL OUT =      932983.7268             TOTAL OUT =        2703.3435

            IN - OUT =      -1.7336E-02              IN - OUT =       8.8091E-05

 PERCENT DISCREPANCY =          -0.00     PERCENT DISCREPANCY =           0.00




         TIME SUMMARY AT END OF TIME STEP    1 IN STRESS PERIOD  332
                    SECONDS     MINUTES      HOURS       DAYS        YEARS
                    -----------------------------------------------------------
   TIME STEP LENGTH  86400.      1440.0      24.000      1.0000     2.73785E-03
 STRESS PERIOD TIME  86400.      1440.0      24.000      1.0000     2.73785E-03
         TOTAL TIME 2.86848E+07 4.78080E+05  7968.0      332.00     0.90897    


end timestep


start timestep kper="333" kstp="1" mode="normal"

 #Stressperiod Save Options

 BEGIN READING OUTPUT CONTROL FOR STRESS PERIOD 333
      ALL TIME STEPS WILL BE SAVED
      ALL TIME STEPS WILL BE SAVED

 END READING OUTPUT CONTROL FOR STRESS PERIOD 333


 PROCESSING STORAGE PERIOD DATA
 END PROCESSING STORAGE PERIOD DATA


 STRESS PERIOD 333 IS TRANSIENT


 REUSING DRNS FROM LAST STRESS PERIOD

 REUSING RIVS FROM LAST STRESS PERIOD

 REUSING RIVS FROM LAST STRESS PERIOD

 REUSING RCHS FROM LAST STRESS PERIOD
 UBDSV06 SAVING              DRN IN MODEL GWF_1            PACKAGE GWF_1           CONNECTED TO MODEL GWF_1            PACKAGE DRN_SYS1         ON UNIT   1018 AT TIME STEP      1, STRESS PERIOD    333
 UBDSV06 SAVING              RIV IN MODEL GWF_1            PACKAGE GWF_1           CONNECTED TO MODEL GWF_1            PACKAGE RIV_SYS1         ON UNIT   1018 AT TIME STEP      1, STRESS PERIOD    333
 UBDSV06 SAVING              RIV IN MODEL GWF_1            PACKAGE GWF_1           CONNECTED TO MODEL GWF_1            PACKAGE RIV_SYS2         ON UNIT   1018 AT TIME STEP      1, STRESS PERIOD    333
 UBDSV06 SAVING              RCH IN MODEL GWF_1            PACKAGE GWF_1           CONNECTED TO MODEL GWF_1            PACKAGE RCH_MSW          ON UNIT   1018 AT TIME STEP      1, STRESS PERIOD    333

 HEAD WILL BE SAVED ON UNIT 1017 AT END OF TIME STEP    1, STRESS PERIOD  333


  VOLUME BUDGET FOR ENTIRE MODEL AT END OF TIME STEP    1, STRESS PERIOD 333
  ---------------------------------------------------------------------------------------------------

     CUMULATIVE VOLUME      L**3       RATES FOR THIS TIME STEP      L**3/T          PACKAGE NAME    
     ------------------                 ------------------------                     ----------------

           IN:                                      IN:
           ---                                      ---
              STO-SS =      229980.3577                STO-SS =         466.5450     STORAGE                          
                 DRN =           0.0000                   DRN =           0.0000     DRN_SYS1                         
                 RIV =      264364.8113                   RIV =         660.1299     RIV_SYS1                         
                 RIV =           0.0000                   RIV =           0.0000     RIV_SYS2                         
                 RCH =      441309.9508                   RCH =        1544.7353     RCH_MSW                          

            TOTAL IN =      935655.1197              TOTAL IN =        2671.4103

          OUT:                                     OUT:
          ----                                     ----
              STO-SS =       50208.5173                STO-SS =           0.0000     STORAGE                          
                 DRN =       17385.7426                   DRN =          59.2661     DRN_SYS1                         
                 RIV =      812280.6602                   RIV =        2447.6975     RIV_SYS1                         
                 RIV =       49291.7759                   RIV =         164.4460     RIV_SYS2                         
                 RCH =        6488.4405                   RCH =           0.0000     RCH_MSW                          

           TOTAL OUT =      935655.1364             TOTAL OUT =        2671.4096

            IN - OUT =      -1.6717E-02              IN - OUT =       6.1861E-04

 PERCENT DISCREPANCY =          -0.00     PERCENT DISCREPANCY =           0.00




         TIME SUMMARY AT END OF TIME STEP    1 IN STRESS PERIOD  333
                    SECONDS     MINUTES      HOURS       DAYS        YEARS
                    -----------------------------------------------------------
   TIME STEP LENGTH  86400.      1440.0      24.000      1.0000     2.73785E-03
 STRESS PERIOD TIME  86400.      1440.0      24.000      1.0000     2.73785E-03
         TOTAL TIME 2.87712E+07 4.79520E+05  7992.0      333.00     0.91170    


end timestep


start timestep kper="334" kstp="1" mode="normal"

 #Stressperiod Save Options

 BEGIN READING OUTPUT CONTROL FOR STRESS PERIOD 334
      ALL TIME STEPS WILL BE SAVED
      ALL TIME STEPS WILL BE SAVED

 END READING OUTPUT CONTROL FOR STRESS PERIOD 334


 PROCESSING STORAGE PERIOD DATA
 END PROCESSING STORAGE PERIOD DATA


 STRESS PERIOD 334 IS TRANSIENT


 REUSING DRNS FROM LAST STRESS PERIOD

 REUSING RIVS FROM LAST STRESS PERIOD

 REUSING RIVS FROM LAST STRESS PERIOD

 REUSING RCHS FROM LAST STRESS PERIOD
 UBDSV06 SAVING              DRN IN MODEL GWF_1            PACKAGE GWF_1           CONNECTED TO MODEL GWF_1            PACKAGE DRN_SYS1         ON UNIT   1018 AT TIME STEP      1, STRESS PERIOD    334
 UBDSV06 SAVING              RIV IN MODEL GWF_1            PACKAGE GWF_1           CONNECTED TO MODEL GWF_1            PACKAGE RIV_SYS1         ON UNIT   1018 AT TIME STEP      1, STRESS PERIOD    334
 UBDSV06 SAVING              RIV IN MODEL GWF_1            PACKAGE GWF_1           CONNECTED TO MODEL GWF_1            PACKAGE RIV_SYS2         ON UNIT   1018 AT TIME STEP      1, STRESS PERIOD    334
 UBDSV06 SAVING              RCH IN MODEL GWF_1            PACKAGE GWF_1           CONNECTED TO MODEL GWF_1            PACKAGE RCH_MSW          ON UNIT   1018 AT TIME STEP      1, STRESS PERIOD    334

 HEAD WILL BE SAVED ON UNIT 1017 AT END OF TIME STEP    1, STRESS PERIOD  334


  VOLUME BUDGET FOR ENTIRE MODEL AT END OF TIME STEP    1, STRESS PERIOD 334
  ---------------------------------------------------------------------------------------------------

     CUMULATIVE VOLUME      L**3       RATES FOR THIS TIME STEP      L**3/T          PACKAGE NAME    
     ------------------                 ------------------------                     ----------------

           IN:                                      IN:
           ---                                      ---
              STO-SS =      230462.9181                STO-SS =         482.5604     STORAGE                          
                 DRN =           0.0000                   DRN =           0.0000     DRN_SYS1                         
                 RIV =      265036.5908                   RIV =         671.7795     RIV_SYS1                         
                 RIV =           0.0000                   RIV =           0.0000     RIV_SYS2                         
                 RCH =      442794.6720                   RCH =        1484.7212     RCH_MSW                          

            TOTAL IN =      938294.1809              TOTAL IN =        2639.0611

          OUT:                                     OUT:
          ----                                     ----
              STO-SS =       50208.5173                STO-SS =           0.0000     STORAGE                          
                 DRN =       17444.1757                   DRN =          58.4331     DRN_SYS1                         
                 RIV =      814699.0650                   RIV =        2418.4047     RIV_SYS1                         
                 RIV =       49453.9995                   RIV =         162.2236     RIV_SYS2                         
                 RCH =        6488.4405                   RCH =           0.0000     RCH_MSW                          

           TOTAL OUT =      938294.1979             TOTAL OUT =        2639.0614

            IN - OUT =      -1.7003E-02              IN - OUT =      -2.8553E-04

 PERCENT DISCREPANCY =          -0.00     PERCENT DISCREPANCY =          -0.00




         TIME SUMMARY AT END OF TIME STEP    1 IN STRESS PERIOD  334
                    SECONDS     MINUTES      HOURS       DAYS        YEARS
                    -----------------------------------------------------------
   TIME STEP LENGTH  86400.      1440.0      24.000      1.0000     2.73785E-03
 STRESS PERIOD TIME  86400.      1440.0      24.000      1.0000     2.73785E-03
         TOTAL TIME 2.88576E+07 4.80960E+05  8016.0      334.00     0.91444    


end timestep


start timestep kper="335" kstp="1" mode="normal"

 #Stressperiod Save Options

 BEGIN READING OUTPUT CONTROL FOR STRESS PERIOD 335
      ALL TIME STEPS WILL BE SAVED
      ALL TIME STEPS WILL BE SAVED

 END READING OUTPUT CONTROL FOR STRESS PERIOD 335


 PROCESSING STORAGE PERIOD DATA
 END PROCESSING STORAGE PERIOD DATA


 STRESS PERIOD 335 IS TRANSIENT


 REUSING DRNS FROM LAST STRESS PERIOD

 REUSING RIVS FROM LAST STRESS PERIOD

 REUSING RIVS FROM LAST STRESS PERIOD

 REUSING RCHS FROM LAST STRESS PERIOD
 UBDSV06 SAVING              DRN IN MODEL GWF_1            PACKAGE GWF_1           CONNECTED TO MODEL GWF_1            PACKAGE DRN_SYS1         ON UNIT   1018 AT TIME STEP      1, STRESS PERIOD    335
 UBDSV06 SAVING              RIV IN MODEL GWF_1            PACKAGE GWF_1           CONNECTED TO MODEL GWF_1            PACKAGE RIV_SYS1         ON UNIT   1018 AT TIME STEP      1, STRESS PERIOD    335
 UBDSV06 SAVING              RIV IN MODEL GWF_1            PACKAGE GWF_1           CONNECTED TO MODEL GWF_1            PACKAGE RIV_SYS2         ON UNIT   1018 AT TIME STEP      1, STRESS PERIOD    335
 UBDSV06 SAVING              RCH IN MODEL GWF_1            PACKAGE GWF_1           CONNECTED TO MODEL GWF_1            PACKAGE RCH_MSW          ON UNIT   1018 AT TIME STEP      1, STRESS PERIOD    335

 HEAD WILL BE SAVED ON UNIT 1017 AT END OF TIME STEP    1, STRESS PERIOD  335


  VOLUME BUDGET FOR ENTIRE MODEL AT END OF TIME STEP    1, STRESS PERIOD 335
  ---------------------------------------------------------------------------------------------------

     CUMULATIVE VOLUME      L**3       RATES FOR THIS TIME STEP      L**3/T          PACKAGE NAME    
     ------------------                 ------------------------                     ----------------

           IN:                                      IN:
           ---                                      ---
              STO-SS =      230958.2558                STO-SS =         495.3377     STORAGE                          
                 DRN =           0.0000                   DRN =           0.0000     DRN_SYS1                         
                 RIV =      265720.0681                   RIV =         683.4773     RIV_SYS1                         
                 RIV =           0.0000                   RIV =           0.0000     RIV_SYS2                         
                 RCH =      444222.3225                   RCH =        1427.6505     RCH_MSW                          

            TOTAL IN =      940900.6463              TOTAL IN =        2606.4655

          OUT:                                     OUT:
          ----                                     ----
              STO-SS =       50208.5173                STO-SS =           0.0000     STORAGE                          
                 DRN =       17501.7544                   DRN =          57.5787     DRN_SYS1                         
                 RIV =      817087.9972                   RIV =        2388.9322     RIV_SYS1                         
                 RIV =       49613.9537                   RIV =         159.9542     RIV_SYS2                         
                 RCH =        6488.4405                   RCH =           0.0000     RCH_MSW                          

           TOTAL OUT =      940900.6629             TOTAL OUT =        2606.4651

            IN - OUT =      -1.6623E-02              IN - OUT =       3.7930E-04

 PERCENT DISCREPANCY =          -0.00     PERCENT DISCREPANCY =           0.00




         TIME SUMMARY AT END OF TIME STEP    1 IN STRESS PERIOD  335
                    SECONDS     MINUTES      HOURS       DAYS        YEARS
                    -----------------------------------------------------------
   TIME STEP LENGTH  86400.      1440.0      24.000      1.0000     2.73785E-03
 STRESS PERIOD TIME  86400.      1440.0      24.000      1.0000     2.73785E-03
         TOTAL TIME 2.89440E+07 4.82400E+05  8040.0      335.00     0.91718    


end timestep


start timestep kper="336" kstp="1" mode="normal"

 #Stressperiod Save Options

 BEGIN READING OUTPUT CONTROL FOR STRESS PERIOD 336
      ALL TIME STEPS WILL BE SAVED
      ALL TIME STEPS WILL BE SAVED

 END READING OUTPUT CONTROL FOR STRESS PERIOD 336


 PROCESSING STORAGE PERIOD DATA
 END PROCESSING STORAGE PERIOD DATA


 STRESS PERIOD 336 IS TRANSIENT


 REUSING DRNS FROM LAST STRESS PERIOD

 REUSING RIVS FROM LAST STRESS PERIOD

 REUSING RIVS FROM LAST STRESS PERIOD

 REUSING RCHS FROM LAST STRESS PERIOD
 UBDSV06 SAVING              DRN IN MODEL GWF_1            PACKAGE GWF_1           CONNECTED TO MODEL GWF_1            PACKAGE DRN_SYS1         ON UNIT   1018 AT TIME STEP      1, STRESS PERIOD    336
 UBDSV06 SAVING              RIV IN MODEL GWF_1            PACKAGE GWF_1           CONNECTED TO MODEL GWF_1            PACKAGE RIV_SYS1         ON UNIT   1018 AT TIME STEP      1, STRESS PERIOD    336
 UBDSV06 SAVING              RIV IN MODEL GWF_1            PACKAGE GWF_1           CONNECTED TO MODEL GWF_1            PACKAGE RIV_SYS2         ON UNIT   1018 AT TIME STEP      1, STRESS PERIOD    336
 UBDSV06 SAVING              RCH IN MODEL GWF_1            PACKAGE GWF_1           CONNECTED TO MODEL GWF_1            PACKAGE RCH_MSW          ON UNIT   1018 AT TIME STEP      1, STRESS PERIOD    336

 HEAD WILL BE SAVED ON UNIT 1017 AT END OF TIME STEP    1, STRESS PERIOD  336


  VOLUME BUDGET FOR ENTIRE MODEL AT END OF TIME STEP    1, STRESS PERIOD 336
  ---------------------------------------------------------------------------------------------------

     CUMULATIVE VOLUME      L**3       RATES FOR THIS TIME STEP      L**3/T          PACKAGE NAME    
     ------------------                 ------------------------                     ----------------

           IN:                                      IN:
           ---                                      ---
              STO-SS =      231464.4028                STO-SS =         506.1470     STORAGE                          
                 DRN =           0.0000                   DRN =           0.0000     DRN_SYS1                         
                 RIV =      266415.6892                   RIV =         695.6212     RIV_SYS1                         
                 RIV =           0.0000                   RIV =           0.0000     RIV_SYS2                         
                 RCH =      445594.7596                   RCH =        1372.4372     RCH_MSW                          

            TOTAL IN =      943474.8517              TOTAL IN =        2574.2054

          OUT:                                     OUT:
          ----                                     ----
              STO-SS =       50208.5173                STO-SS =           0.0000     STORAGE                          
                 DRN =       17558.4613                   DRN =          56.7069     DRN_SYS1                         
                 RIV =      819447.8484                   RIV =        2359.8512     RIV_SYS1                         
                 RIV =       49771.6026                   RIV =         157.6490     RIV_SYS2                         
                 RCH =        6488.4405                   RCH =           0.0000     RCH_MSW                          

           TOTAL OUT =      943474.8701             TOTAL OUT =        2574.2071

            IN - OUT =      -1.8366E-02              IN - OUT =      -1.7429E-03

 PERCENT DISCREPANCY =          -0.00     PERCENT DISCREPANCY =          -0.00




         TIME SUMMARY AT END OF TIME STEP    1 IN STRESS PERIOD  336
                    SECONDS     MINUTES      HOURS       DAYS        YEARS
                    -----------------------------------------------------------
   TIME STEP LENGTH  86400.      1440.0      24.000      1.0000     2.73785E-03
 STRESS PERIOD TIME  86400.      1440.0      24.000      1.0000     2.73785E-03
         TOTAL TIME 2.90304E+07 4.83840E+05  8064.0      336.00     0.91992    


end timestep


start timestep kper="337" kstp="1" mode="normal"

 #Stressperiod Save Options

 BEGIN READING OUTPUT CONTROL FOR STRESS PERIOD 337
      ALL TIME STEPS WILL BE SAVED
      ALL TIME STEPS WILL BE SAVED

 END READING OUTPUT CONTROL FOR STRESS PERIOD 337


 PROCESSING STORAGE PERIOD DATA
 END PROCESSING STORAGE PERIOD DATA


 STRESS PERIOD 337 IS TRANSIENT


 REUSING DRNS FROM LAST STRESS PERIOD

 REUSING RIVS FROM LAST STRESS PERIOD

 REUSING RIVS FROM LAST STRESS PERIOD

 REUSING RCHS FROM LAST STRESS PERIOD
 UBDSV06 SAVING              DRN IN MODEL GWF_1            PACKAGE GWF_1           CONNECTED TO MODEL GWF_1            PACKAGE DRN_SYS1         ON UNIT   1018 AT TIME STEP      1, STRESS PERIOD    337
 UBDSV06 SAVING              RIV IN MODEL GWF_1            PACKAGE GWF_1           CONNECTED TO MODEL GWF_1            PACKAGE RIV_SYS1         ON UNIT   1018 AT TIME STEP      1, STRESS PERIOD    337
 UBDSV06 SAVING              RIV IN MODEL GWF_1            PACKAGE GWF_1           CONNECTED TO MODEL GWF_1            PACKAGE RIV_SYS2         ON UNIT   1018 AT TIME STEP      1, STRESS PERIOD    337
 UBDSV06 SAVING              RCH IN MODEL GWF_1            PACKAGE GWF_1           CONNECTED TO MODEL GWF_1            PACKAGE RCH_MSW          ON UNIT   1018 AT TIME STEP      1, STRESS PERIOD    337

 HEAD WILL BE SAVED ON UNIT 1017 AT END OF TIME STEP    1, STRESS PERIOD  337


  VOLUME BUDGET FOR ENTIRE MODEL AT END OF TIME STEP    1, STRESS PERIOD 337
  ---------------------------------------------------------------------------------------------------

     CUMULATIVE VOLUME      L**3       RATES FOR THIS TIME STEP      L**3/T          PACKAGE NAME    
     ------------------                 ------------------------                     ----------------

           IN:                                      IN:
           ---                                      ---
              STO-SS =      231970.0738                STO-SS =         505.6709     STORAGE                          
                 DRN =           0.0000                   DRN =           0.0000     DRN_SYS1                         
                 RIV =      267123.3081                   RIV =         707.6189     RIV_SYS1                         
                 RIV =           0.0000                   RIV =           0.0000     RIV_SYS2                         
                 RCH =      446925.0195                   RCH =        1330.2599     RCH_MSW                          

            TOTAL IN =      946018.4013              TOTAL IN =        2543.5496

          OUT:                                     OUT:
          ----                                     ----
              STO-SS =       50208.5173                STO-SS =           0.0000     STORAGE                          
                 DRN =       17614.2939                   DRN =          55.8326     DRN_SYS1                         
                 RIV =      821780.2221                   RIV =        2332.3737     RIV_SYS1                         
                 RIV =       49926.9462                   RIV =         155.3435     RIV_SYS2                         
                 RCH =        6488.4405                   RCH =           0.0000     RCH_MSW                          

           TOTAL OUT =      946018.4199             TOTAL OUT =        2543.5498

            IN - OUT =      -1.8514E-02              IN - OUT =      -1.4767E-04

 PERCENT DISCREPANCY =          -0.00     PERCENT DISCREPANCY =          -0.00




         TIME SUMMARY AT END OF TIME STEP    1 IN STRESS PERIOD  337
                    SECONDS     MINUTES      HOURS       DAYS        YEARS
                    -----------------------------------------------------------
   TIME STEP LENGTH  86400.      1440.0      24.000      1.0000     2.73785E-03
 STRESS PERIOD TIME  86400.      1440.0      24.000      1.0000     2.73785E-03
         TOTAL TIME 2.91168E+07 4.85280E+05  8088.0      337.00     0.92266    


end timestep


start timestep kper="338" kstp="1" mode="normal"

 #Stressperiod Save Options

 BEGIN READING OUTPUT CONTROL FOR STRESS PERIOD 338
      ALL TIME STEPS WILL BE SAVED
      ALL TIME STEPS WILL BE SAVED

 END READING OUTPUT CONTROL FOR STRESS PERIOD 338


 PROCESSING STORAGE PERIOD DATA
 END PROCESSING STORAGE PERIOD DATA


 STRESS PERIOD 338 IS TRANSIENT


 REUSING DRNS FROM LAST STRESS PERIOD

 REUSING RIVS FROM LAST STRESS PERIOD

 REUSING RIVS FROM LAST STRESS PERIOD

 REUSING RCHS FROM LAST STRESS PERIOD
 UBDSV06 SAVING              DRN IN MODEL GWF_1            PACKAGE GWF_1           CONNECTED TO MODEL GWF_1            PACKAGE DRN_SYS1         ON UNIT   1018 AT TIME STEP      1, STRESS PERIOD    338
 UBDSV06 SAVING              RIV IN MODEL GWF_1            PACKAGE GWF_1           CONNECTED TO MODEL GWF_1            PACKAGE RIV_SYS1         ON UNIT   1018 AT TIME STEP      1, STRESS PERIOD    338
 UBDSV06 SAVING              RIV IN MODEL GWF_1            PACKAGE GWF_1           CONNECTED TO MODEL GWF_1            PACKAGE RIV_SYS2         ON UNIT   1018 AT TIME STEP      1, STRESS PERIOD    338
 UBDSV06 SAVING              RCH IN MODEL GWF_1            PACKAGE GWF_1           CONNECTED TO MODEL GWF_1            PACKAGE RCH_MSW          ON UNIT   1018 AT TIME STEP      1, STRESS PERIOD    338

 HEAD WILL BE SAVED ON UNIT 1017 AT END OF TIME STEP    1, STRESS PERIOD  338


  VOLUME BUDGET FOR ENTIRE MODEL AT END OF TIME STEP    1, STRESS PERIOD 338
  ---------------------------------------------------------------------------------------------------

     CUMULATIVE VOLUME      L**3       RATES FOR THIS TIME STEP      L**3/T          PACKAGE NAME    
     ------------------                 ------------------------                     ----------------

           IN:                                      IN:
           ---                                      ---
              STO-SS =      232476.0845                STO-SS =         506.0107     STORAGE                          
                 DRN =           0.0000                   DRN =           0.0000     DRN_SYS1                         
                 RIV =      267842.6218                   RIV =         719.3137     RIV_SYS1                         
                 RIV =           0.0000                   RIV =           0.0000     RIV_SYS2                         
                 RCH =      448213.1864                   RCH =        1288.1669     RCH_MSW                          

            TOTAL IN =      948531.8927              TOTAL IN =        2513.4913

          OUT:                                     OUT:
          ----                                     ----
              STO-SS =       50208.5173                STO-SS =           0.0000     STORAGE                          
                 DRN =       17669.2505                   DRN =          54.9566     DRN_SYS1                         
                 RIV =      824085.7112                   RIV =        2305.4891     RIV_SYS1                         
                 RIV =       50079.9915                   RIV =         153.0454     RIV_SYS2                         
                 RCH =        6488.4405                   RCH =           0.0000     RCH_MSW                          

           TOTAL OUT =      948531.9110             TOTAL OUT =        2513.4911

            IN - OUT =      -1.8314E-02              IN - OUT =       2.0012E-04

 PERCENT DISCREPANCY =          -0.00     PERCENT DISCREPANCY =           0.00




         TIME SUMMARY AT END OF TIME STEP    1 IN STRESS PERIOD  338
                    SECONDS     MINUTES      HOURS       DAYS        YEARS
                    -----------------------------------------------------------
   TIME STEP LENGTH  86400.      1440.0      24.000      1.0000     2.73785E-03
 STRESS PERIOD TIME  86400.      1440.0      24.000      1.0000     2.73785E-03
         TOTAL TIME 2.92032E+07 4.86720E+05  8112.0      338.00     0.92539    


end timestep


start timestep kper="339" kstp="1" mode="normal"

 #Stressperiod Save Options

 BEGIN READING OUTPUT CONTROL FOR STRESS PERIOD 339
      ALL TIME STEPS WILL BE SAVED
      ALL TIME STEPS WILL BE SAVED

 END READING OUTPUT CONTROL FOR STRESS PERIOD 339


 PROCESSING STORAGE PERIOD DATA
 END PROCESSING STORAGE PERIOD DATA


 STRESS PERIOD 339 IS TRANSIENT


 REUSING DRNS FROM LAST STRESS PERIOD

 REUSING RIVS FROM LAST STRESS PERIOD

 REUSING RIVS FROM LAST STRESS PERIOD

 REUSING RCHS FROM LAST STRESS PERIOD
 UBDSV06 SAVING              DRN IN MODEL GWF_1            PACKAGE GWF_1           CONNECTED TO MODEL GWF_1            PACKAGE DRN_SYS1         ON UNIT   1018 AT TIME STEP      1, STRESS PERIOD    339
 UBDSV06 SAVING              RIV IN MODEL GWF_1            PACKAGE GWF_1           CONNECTED TO MODEL GWF_1            PACKAGE RIV_SYS1         ON UNIT   1018 AT TIME STEP      1, STRESS PERIOD    339
 UBDSV06 SAVING              RIV IN MODEL GWF_1            PACKAGE GWF_1           CONNECTED TO MODEL GWF_1            PACKAGE RIV_SYS2         ON UNIT   1018 AT TIME STEP      1, STRESS PERIOD    339
 UBDSV06 SAVING              RCH IN MODEL GWF_1            PACKAGE GWF_1           CONNECTED TO MODEL GWF_1            PACKAGE RCH_MSW          ON UNIT   1018 AT TIME STEP      1, STRESS PERIOD    339

 HEAD WILL BE SAVED ON UNIT 1017 AT END OF TIME STEP    1, STRESS PERIOD  339


  VOLUME BUDGET FOR ENTIRE MODEL AT END OF TIME STEP    1, STRESS PERIOD 339
  ---------------------------------------------------------------------------------------------------

     CUMULATIVE VOLUME      L**3       RATES FOR THIS TIME STEP      L**3/T          PACKAGE NAME    
     ------------------                 ------------------------                     ----------------

           IN:                                      IN:
           ---                                      ---
              STO-SS =      232977.5912                STO-SS =         501.5067     STORAGE                          
                 DRN =           0.0000                   DRN =           0.0000     DRN_SYS1                         
                 RIV =      268573.1517                   RIV =         730.5299     RIV_SYS1                         
                 RIV =           0.0000                   RIV =           0.0000     RIV_SYS2                         
                 RCH =      449465.6426                   RCH =        1252.4562     RCH_MSW                          

            TOTAL IN =      951016.3855              TOTAL IN =        2484.4928

          OUT:                                     OUT:
          ----                                     ----
              STO-SS =       50208.5173                STO-SS =           0.0000     STORAGE                          
                 DRN =       17723.3370                   DRN =          54.0865     DRN_SYS1                         
                 RIV =      826365.3463                   RIV =        2279.6351     RIV_SYS1                         
                 RIV =       50230.7641                   RIV =         150.7726     RIV_SYS2                         
                 RCH =        6488.4405                   RCH =           0.0000     RCH_MSW                          

           TOTAL OUT =      951016.4051             TOTAL OUT =        2484.4941

            IN - OUT =      -1.9622E-02              IN - OUT =      -1.3080E-03

 PERCENT DISCREPANCY =          -0.00     PERCENT DISCREPANCY =          -0.00




         TIME SUMMARY AT END OF TIME STEP    1 IN STRESS PERIOD  339
                    SECONDS     MINUTES      HOURS       DAYS        YEARS
                    -----------------------------------------------------------
   TIME STEP LENGTH  86400.      1440.0      24.000      1.0000     2.73785E-03
 STRESS PERIOD TIME  86400.      1440.0      24.000      1.0000     2.73785E-03
         TOTAL TIME 2.92896E+07 4.88160E+05  8136.0      339.00     0.92813    


end timestep


start timestep kper="340" kstp="1" mode="normal"

 #Stressperiod Save Options

 BEGIN READING OUTPUT CONTROL FOR STRESS PERIOD 340
      ALL TIME STEPS WILL BE SAVED
      ALL TIME STEPS WILL BE SAVED

 END READING OUTPUT CONTROL FOR STRESS PERIOD 340


 PROCESSING STORAGE PERIOD DATA
 END PROCESSING STORAGE PERIOD DATA


 STRESS PERIOD 340 IS TRANSIENT


 REUSING DRNS FROM LAST STRESS PERIOD

 REUSING RIVS FROM LAST STRESS PERIOD

 REUSING RIVS FROM LAST STRESS PERIOD

 REUSING RCHS FROM LAST STRESS PERIOD
 UBDSV06 SAVING              DRN IN MODEL GWF_1            PACKAGE GWF_1           CONNECTED TO MODEL GWF_1            PACKAGE DRN_SYS1         ON UNIT   1018 AT TIME STEP      1, STRESS PERIOD    340
 UBDSV06 SAVING              RIV IN MODEL GWF_1            PACKAGE GWF_1           CONNECTED TO MODEL GWF_1            PACKAGE RIV_SYS1         ON UNIT   1018 AT TIME STEP      1, STRESS PERIOD    340
 UBDSV06 SAVING              RIV IN MODEL GWF_1            PACKAGE GWF_1           CONNECTED TO MODEL GWF_1            PACKAGE RIV_SYS2         ON UNIT   1018 AT TIME STEP      1, STRESS PERIOD    340
 UBDSV06 SAVING              RCH IN MODEL GWF_1            PACKAGE GWF_1           CONNECTED TO MODEL GWF_1            PACKAGE RCH_MSW          ON UNIT   1018 AT TIME STEP      1, STRESS PERIOD    340

 HEAD WILL BE SAVED ON UNIT 1017 AT END OF TIME STEP    1, STRESS PERIOD  340


  VOLUME BUDGET FOR ENTIRE MODEL AT END OF TIME STEP    1, STRESS PERIOD 340
  ---------------------------------------------------------------------------------------------------

     CUMULATIVE VOLUME      L**3       RATES FOR THIS TIME STEP      L**3/T          PACKAGE NAME    
     ------------------                 ------------------------                     ----------------

           IN:                                      IN:
           ---                                      ---
              STO-SS =      233474.0372                STO-SS =         496.4460     STORAGE                          
                 DRN =           0.0000                   DRN =           0.0000     DRN_SYS1                         
                 RIV =      269314.4612                   RIV =         741.3095     RIV_SYS1                         
                 RIV =           0.0000                   RIV =           0.0000     RIV_SYS2                         
                 RCH =      450684.3831                   RCH =        1218.7405     RCH_MSW                          

            TOTAL IN =      953472.8815              TOTAL IN =        2456.4960

          OUT:                                     OUT:
          ----                                     ----
              STO-SS =       50208.5173                STO-SS =           0.0000     STORAGE                          
                 DRN =       17776.5629                   DRN =          53.2259     DRN_SYS1                         
                 RIV =      828620.0814                   RIV =        2254.7351     RIV_SYS1                         
                 RIV =       50379.2993                   RIV =         148.5352     RIV_SYS2                         
                 RCH =        6488.4405                   RCH =           0.0000     RCH_MSW                          

           TOTAL OUT =      953472.9014             TOTAL OUT =        2456.4963

            IN - OUT =      -1.9840E-02              IN - OUT =      -2.1780E-04

 PERCENT DISCREPANCY =          -0.00     PERCENT DISCREPANCY =          -0.00




         TIME SUMMARY AT END OF TIME STEP    1 IN STRESS PERIOD  340
                    SECONDS     MINUTES      HOURS       DAYS        YEARS
                    -----------------------------------------------------------
   TIME STEP LENGTH  86400.      1440.0      24.000      1.0000     2.73785E-03
 STRESS PERIOD TIME  86400.      1440.0      24.000      1.0000     2.73785E-03
         TOTAL TIME 2.93760E+07 4.89600E+05  8160.0      340.00     0.93087    


end timestep


start timestep kper="341" kstp="1" mode="normal"

 #Stressperiod Save Options

 BEGIN READING OUTPUT CONTROL FOR STRESS PERIOD 341
      ALL TIME STEPS WILL BE SAVED
      ALL TIME STEPS WILL BE SAVED

 END READING OUTPUT CONTROL FOR STRESS PERIOD 341


 PROCESSING STORAGE PERIOD DATA
 END PROCESSING STORAGE PERIOD DATA


 STRESS PERIOD 341 IS TRANSIENT


 REUSING DRNS FROM LAST STRESS PERIOD

 REUSING RIVS FROM LAST STRESS PERIOD

 REUSING RIVS FROM LAST STRESS PERIOD

 REUSING RCHS FROM LAST STRESS PERIOD
 UBDSV06 SAVING              DRN IN MODEL GWF_1            PACKAGE GWF_1           CONNECTED TO MODEL GWF_1            PACKAGE DRN_SYS1         ON UNIT   1018 AT TIME STEP      1, STRESS PERIOD    341
 UBDSV06 SAVING              RIV IN MODEL GWF_1            PACKAGE GWF_1           CONNECTED TO MODEL GWF_1            PACKAGE RIV_SYS1         ON UNIT   1018 AT TIME STEP      1, STRESS PERIOD    341
 UBDSV06 SAVING              RIV IN MODEL GWF_1            PACKAGE GWF_1           CONNECTED TO MODEL GWF_1            PACKAGE RIV_SYS2         ON UNIT   1018 AT TIME STEP      1, STRESS PERIOD    341
 UBDSV06 SAVING              RCH IN MODEL GWF_1            PACKAGE GWF_1           CONNECTED TO MODEL GWF_1            PACKAGE RCH_MSW          ON UNIT   1018 AT TIME STEP      1, STRESS PERIOD    341

 HEAD WILL BE SAVED ON UNIT 1017 AT END OF TIME STEP    1, STRESS PERIOD  341


  VOLUME BUDGET FOR ENTIRE MODEL AT END OF TIME STEP    1, STRESS PERIOD 341
  ---------------------------------------------------------------------------------------------------

     CUMULATIVE VOLUME      L**3       RATES FOR THIS TIME STEP      L**3/T          PACKAGE NAME    
     ------------------                 ------------------------                     ----------------

           IN:                                      IN:
           ---                                      ---
              STO-SS =      233961.7164                STO-SS =         487.6792     STORAGE                          
                 DRN =           0.0000                   DRN =           0.0000     DRN_SYS1                         
                 RIV =      270066.0297                   RIV =         751.5686     RIV_SYS1                         
                 RIV =           0.0000                   RIV =           0.0000     RIV_SYS2                         
                 RCH =      451874.8436                   RCH =        1190.4605     RCH_MSW                          

            TOTAL IN =      955902.5898              TOTAL IN =        2429.7082

          OUT:                                     OUT:
          ----                                     ----
              STO-SS =       50208.5173                STO-SS =           0.0000     STORAGE                          
                 DRN =       17828.9436                   DRN =          52.3807     DRN_SYS1                         
                 RIV =      830851.0615                   RIV =        2230.9801     RIV_SYS1                         
                 RIV =       50525.6486                   RIV =         146.3493     RIV_SYS2                         
                 RCH =        6488.4405                   RCH =           0.0000     RCH_MSW                          

           TOTAL OUT =      955902.6114             TOTAL OUT =        2429.7100

            IN - OUT =      -2.1643E-02              IN - OUT =      -1.8036E-03

 PERCENT DISCREPANCY =          -0.00     PERCENT DISCREPANCY =          -0.00




         TIME SUMMARY AT END OF TIME STEP    1 IN STRESS PERIOD  341
                    SECONDS     MINUTES      HOURS       DAYS        YEARS
                    -----------------------------------------------------------
   TIME STEP LENGTH  86400.      1440.0      24.000      1.0000     2.73785E-03
 STRESS PERIOD TIME  86400.      1440.0      24.000      1.0000     2.73785E-03
         TOTAL TIME 2.94624E+07 4.91040E+05  8184.0      341.00     0.93361    


end timestep


start timestep kper="342" kstp="1" mode="normal"

 #Stressperiod Save Options

 BEGIN READING OUTPUT CONTROL FOR STRESS PERIOD 342
      ALL TIME STEPS WILL BE SAVED
      ALL TIME STEPS WILL BE SAVED

 END READING OUTPUT CONTROL FOR STRESS PERIOD 342


 PROCESSING STORAGE PERIOD DATA
 END PROCESSING STORAGE PERIOD DATA


 STRESS PERIOD 342 IS TRANSIENT


 REUSING DRNS FROM LAST STRESS PERIOD

 REUSING RIVS FROM LAST STRESS PERIOD

 REUSING RIVS FROM LAST STRESS PERIOD

 REUSING RCHS FROM LAST STRESS PERIOD
 UBDSV06 SAVING              DRN IN MODEL GWF_1            PACKAGE GWF_1           CONNECTED TO MODEL GWF_1            PACKAGE DRN_SYS1         ON UNIT   1018 AT TIME STEP      1, STRESS PERIOD    342
 UBDSV06 SAVING              RIV IN MODEL GWF_1            PACKAGE GWF_1           CONNECTED TO MODEL GWF_1            PACKAGE RIV_SYS1         ON UNIT   1018 AT TIME STEP      1, STRESS PERIOD    342
 UBDSV06 SAVING              RIV IN MODEL GWF_1            PACKAGE GWF_1           CONNECTED TO MODEL GWF_1            PACKAGE RIV_SYS2         ON UNIT   1018 AT TIME STEP      1, STRESS PERIOD    342
 UBDSV06 SAVING              RCH IN MODEL GWF_1            PACKAGE GWF_1           CONNECTED TO MODEL GWF_1            PACKAGE RCH_MSW          ON UNIT   1018 AT TIME STEP      1, STRESS PERIOD    342

 HEAD WILL BE SAVED ON UNIT 1017 AT END OF TIME STEP    1, STRESS PERIOD  342


  VOLUME BUDGET FOR ENTIRE MODEL AT END OF TIME STEP    1, STRESS PERIOD 342
  ---------------------------------------------------------------------------------------------------

     CUMULATIVE VOLUME      L**3       RATES FOR THIS TIME STEP      L**3/T          PACKAGE NAME    
     ------------------                 ------------------------                     ----------------

           IN:                                      IN:
           ---                                      ---
              STO-SS =      234344.8897                STO-SS =         383.1733     STORAGE                          
                 DRN =           0.0000                   DRN =           0.0000     DRN_SYS1                         
                 RIV =      270822.0898                   RIV =         756.0601     RIV_SYS1                         
                 RIV =           0.0000                   RIV =           0.0000     RIV_SYS2                         
                 RCH =      453153.0375                   RCH =        1278.1939     RCH_MSW                          

            TOTAL IN =      958320.0170              TOTAL IN =        2417.4273

          OUT:                                     OUT:
          ----                                     ----
              STO-SS =       50209.3759                STO-SS =           0.8586     STORAGE                          
                 DRN =       17880.6033                   DRN =          51.6597     DRN_SYS1                         
                 RIV =      833071.4359                   RIV =        2220.3744     RIV_SYS1                         
                 RIV =       50670.1847                   RIV =         144.5361     RIV_SYS2                         
                 RCH =        6488.4405                   RCH =           0.0000     RCH_MSW                          

           TOTAL OUT =      958320.0404             TOTAL OUT =        2417.4290

            IN - OUT =      -2.3347E-02              IN - OUT =      -1.7042E-03

 PERCENT DISCREPANCY =          -0.00     PERCENT DISCREPANCY =          -0.00




         TIME SUMMARY AT END OF TIME STEP    1 IN STRESS PERIOD  342
                    SECONDS     MINUTES      HOURS       DAYS        YEARS
                    -----------------------------------------------------------
   TIME STEP LENGTH  86400.      1440.0      24.000      1.0000     2.73785E-03
 STRESS PERIOD TIME  86400.      1440.0      24.000      1.0000     2.73785E-03
         TOTAL TIME 2.95488E+07 4.92480E+05  8208.0      342.00     0.93634    


end timestep


start timestep kper="343" kstp="1" mode="normal"

 #Stressperiod Save Options

 BEGIN READING OUTPUT CONTROL FOR STRESS PERIOD 343
      ALL TIME STEPS WILL BE SAVED
      ALL TIME STEPS WILL BE SAVED

 END READING OUTPUT CONTROL FOR STRESS PERIOD 343


 PROCESSING STORAGE PERIOD DATA
 END PROCESSING STORAGE PERIOD DATA


 STRESS PERIOD 343 IS TRANSIENT


 REUSING DRNS FROM LAST STRESS PERIOD

 REUSING RIVS FROM LAST STRESS PERIOD

 REUSING RIVS FROM LAST STRESS PERIOD

 REUSING RCHS FROM LAST STRESS PERIOD
 UBDSV06 SAVING              DRN IN MODEL GWF_1            PACKAGE GWF_1           CONNECTED TO MODEL GWF_1            PACKAGE DRN_SYS1         ON UNIT   1018 AT TIME STEP      1, STRESS PERIOD    343
 UBDSV06 SAVING              RIV IN MODEL GWF_1            PACKAGE GWF_1           CONNECTED TO MODEL GWF_1            PACKAGE RIV_SYS1         ON UNIT   1018 AT TIME STEP      1, STRESS PERIOD    343
 UBDSV06 SAVING              RIV IN MODEL GWF_1            PACKAGE GWF_1           CONNECTED TO MODEL GWF_1            PACKAGE RIV_SYS2         ON UNIT   1018 AT TIME STEP      1, STRESS PERIOD    343
 UBDSV06 SAVING              RCH IN MODEL GWF_1            PACKAGE GWF_1           CONNECTED TO MODEL GWF_1            PACKAGE RCH_MSW          ON UNIT   1018 AT TIME STEP      1, STRESS PERIOD    343

 HEAD WILL BE SAVED ON UNIT 1017 AT END OF TIME STEP    1, STRESS PERIOD  343


  VOLUME BUDGET FOR ENTIRE MODEL AT END OF TIME STEP    1, STRESS PERIOD 343
  ---------------------------------------------------------------------------------------------------

     CUMULATIVE VOLUME      L**3       RATES FOR THIS TIME STEP      L**3/T          PACKAGE NAME    
     ------------------                 ------------------------                     ----------------

           IN:                                      IN:
           ---                                      ---
              STO-SS =      234607.4584                STO-SS =         262.5687     STORAGE                          
                 DRN =           0.0000                   DRN =           0.0000     DRN_SYS1                         
                 RIV =      271576.8349                   RIV =         754.7451     RIV_SYS1                         
                 RIV =           0.0000                   RIV =           0.0000     RIV_SYS2                         
                 RCH =      454562.7126                   RCH =        1409.6751     RCH_MSW                          

            TOTAL IN =      960747.0059              TOTAL IN =        2426.9889

          OUT:                                     OUT:
          ----                                     ----
              STO-SS =       50219.0993                STO-SS =           9.7234     STORAGE                          
                 DRN =       17931.7200                   DRN =          51.1166     DRN_SYS1                         
                 RIV =      835294.3499                   RIV =        2222.9140     RIV_SYS1                         
                 RIV =       50813.4245                   RIV =         143.2398     RIV_SYS2                         
                 RCH =        6488.4405                   RCH =           0.0000     RCH_MSW                          

           TOTAL OUT =      960747.0342             TOTAL OUT =        2426.9938

            IN - OUT =      -2.8265E-02              IN - OUT =      -4.9174E-03

 PERCENT DISCREPANCY =          -0.00     PERCENT DISCREPANCY =          -0.00




         TIME SUMMARY AT END OF TIME STEP    1 IN STRESS PERIOD  343
                    SECONDS     MINUTES      HOURS       DAYS        YEARS
                    -----------------------------------------------------------
   TIME STEP LENGTH  86400.      1440.0      24.000      1.0000     2.73785E-03
 STRESS PERIOD TIME  86400.      1440.0      24.000      1.0000     2.73785E-03
         TOTAL TIME 2.96352E+07 4.93920E+05  8232.0      343.00     0.93908    


end timestep


start timestep kper="344" kstp="1" mode="normal"

 #Stressperiod Save Options

 BEGIN READING OUTPUT CONTROL FOR STRESS PERIOD 344
      ALL TIME STEPS WILL BE SAVED
      ALL TIME STEPS WILL BE SAVED

 END READING OUTPUT CONTROL FOR STRESS PERIOD 344


 PROCESSING STORAGE PERIOD DATA
 END PROCESSING STORAGE PERIOD DATA


 STRESS PERIOD 344 IS TRANSIENT


 REUSING DRNS FROM LAST STRESS PERIOD

 REUSING RIVS FROM LAST STRESS PERIOD

 REUSING RIVS FROM LAST STRESS PERIOD

 REUSING RCHS FROM LAST STRESS PERIOD
 UBDSV06 SAVING              DRN IN MODEL GWF_1            PACKAGE GWF_1           CONNECTED TO MODEL GWF_1            PACKAGE DRN_SYS1         ON UNIT   1018 AT TIME STEP      1, STRESS PERIOD    344
 UBDSV06 SAVING              RIV IN MODEL GWF_1            PACKAGE GWF_1           CONNECTED TO MODEL GWF_1            PACKAGE RIV_SYS1         ON UNIT   1018 AT TIME STEP      1, STRESS PERIOD    344
 UBDSV06 SAVING              RIV IN MODEL GWF_1            PACKAGE GWF_1           CONNECTED TO MODEL GWF_1            PACKAGE RIV_SYS2         ON UNIT   1018 AT TIME STEP      1, STRESS PERIOD    344
 UBDSV06 SAVING              RCH IN MODEL GWF_1            PACKAGE GWF_1           CONNECTED TO MODEL GWF_1            PACKAGE RCH_MSW          ON UNIT   1018 AT TIME STEP      1, STRESS PERIOD    344

 HEAD WILL BE SAVED ON UNIT 1017 AT END OF TIME STEP    1, STRESS PERIOD  344


  VOLUME BUDGET FOR ENTIRE MODEL AT END OF TIME STEP    1, STRESS PERIOD 344
  ---------------------------------------------------------------------------------------------------

     CUMULATIVE VOLUME      L**3       RATES FOR THIS TIME STEP      L**3/T          PACKAGE NAME    
     ------------------                 ------------------------                     ----------------

           IN:                                      IN:
           ---                                      ---
              STO-SS =      234770.6670                STO-SS =         163.2086     STORAGE                          
                 DRN =           0.0000                   DRN =           0.0000     DRN_SYS1                         
                 RIV =      272326.2886                   RIV =         749.4537     RIV_SYS1                         
                 RIV =           0.0000                   RIV =           0.0000     RIV_SYS2                         
                 RCH =      456103.3907                   RCH =        1540.6781     RCH_MSW                          

            TOTAL IN =      963200.3463              TOTAL IN =        2453.3404

          OUT:                                     OUT:
          ----                                     ----
              STO-SS =       50245.2607                STO-SS =          26.1613     STORAGE                          
                 DRN =       17982.4706                   DRN =          50.7506     DRN_SYS1                         
                 RIV =      837528.3343                   RIV =        2233.9844     RIV_SYS1                         
                 RIV =       50955.8750                   RIV =         142.4505     RIV_SYS2                         
                 RCH =        6488.4405                   RCH =           0.0000     RCH_MSW                          

           TOTAL OUT =      963200.3810             TOTAL OUT =        2453.3468

            IN - OUT =      -3.4734E-02              IN - OUT =      -6.4690E-03

 PERCENT DISCREPANCY =          -0.00     PERCENT DISCREPANCY =          -0.00




         TIME SUMMARY AT END OF TIME STEP    1 IN STRESS PERIOD  344
                    SECONDS     MINUTES      HOURS       DAYS        YEARS
                    -----------------------------------------------------------
   TIME STEP LENGTH  86400.      1440.0      24.000      1.0000     2.73785E-03
 STRESS PERIOD TIME  86400.      1440.0      24.000      1.0000     2.73785E-03
         TOTAL TIME 2.97216E+07 4.95360E+05  8256.0      344.00     0.94182    


end timestep


start timestep kper="345" kstp="1" mode="normal"

 #Stressperiod Save Options

 BEGIN READING OUTPUT CONTROL FOR STRESS PERIOD 345
      ALL TIME STEPS WILL BE SAVED
      ALL TIME STEPS WILL BE SAVED

 END READING OUTPUT CONTROL FOR STRESS PERIOD 345


 PROCESSING STORAGE PERIOD DATA
 END PROCESSING STORAGE PERIOD DATA


 STRESS PERIOD 345 IS TRANSIENT


 REUSING DRNS FROM LAST STRESS PERIOD

 REUSING RIVS FROM LAST STRESS PERIOD

 REUSING RIVS FROM LAST STRESS PERIOD

 REUSING RCHS FROM LAST STRESS PERIOD
 UBDSV06 SAVING              DRN IN MODEL GWF_1            PACKAGE GWF_1           CONNECTED TO MODEL GWF_1            PACKAGE DRN_SYS1         ON UNIT   1018 AT TIME STEP      1, STRESS PERIOD    345
 UBDSV06 SAVING              RIV IN MODEL GWF_1            PACKAGE GWF_1           CONNECTED TO MODEL GWF_1            PACKAGE RIV_SYS1         ON UNIT   1018 AT TIME STEP      1, STRESS PERIOD    345
 UBDSV06 SAVING              RIV IN MODEL GWF_1            PACKAGE GWF_1           CONNECTED TO MODEL GWF_1            PACKAGE RIV_SYS2         ON UNIT   1018 AT TIME STEP      1, STRESS PERIOD    345
 UBDSV06 SAVING              RCH IN MODEL GWF_1            PACKAGE GWF_1           CONNECTED TO MODEL GWF_1            PACKAGE RCH_MSW          ON UNIT   1018 AT TIME STEP      1, STRESS PERIOD    345

 HEAD WILL BE SAVED ON UNIT 1017 AT END OF TIME STEP    1, STRESS PERIOD  345


  VOLUME BUDGET FOR ENTIRE MODEL AT END OF TIME STEP    1, STRESS PERIOD 345
  ---------------------------------------------------------------------------------------------------

     CUMULATIVE VOLUME      L**3       RATES FOR THIS TIME STEP      L**3/T          PACKAGE NAME    
     ------------------                 ------------------------                     ----------------

           IN:                                      IN:
           ---                                      ---
              STO-SS =      234894.3485                STO-SS =         123.6815     STORAGE                          
                 DRN =           0.0000                   DRN =           0.0000     DRN_SYS1                         
                 RIV =      273070.9542                   RIV =         744.6657     RIV_SYS1                         
                 RIV =           0.0000                   RIV =           0.0000     RIV_SYS2                         
                 RCH =      457698.7619                   RCH =        1595.3712     RCH_MSW                          

            TOTAL IN =      965664.0647              TOTAL IN =        2463.7184

          OUT:                                     OUT:
          ----                                     ----
              STO-SS =       50273.0097                STO-SS =          27.7491     STORAGE                          
                 DRN =       18032.9475                   DRN =          50.4769     DRN_SYS1                         
                 RIV =      839771.9250                   RIV =        2243.5907     RIV_SYS1                         
                 RIV =       51097.7843                   RIV =         141.9093     RIV_SYS2                         
                 RCH =        6488.4405                   RCH =           0.0000     RCH_MSW                          

           TOTAL OUT =      965664.1070             TOTAL OUT =        2463.7260

            IN - OUT =      -4.2330E-02              IN - OUT =      -7.5965E-03

 PERCENT DISCREPANCY =          -0.00     PERCENT DISCREPANCY =          -0.00




         TIME SUMMARY AT END OF TIME STEP    1 IN STRESS PERIOD  345
                    SECONDS     MINUTES      HOURS       DAYS        YEARS
                    -----------------------------------------------------------
   TIME STEP LENGTH  86400.      1440.0      24.000      1.0000     2.73785E-03
 STRESS PERIOD TIME  86400.      1440.0      24.000      1.0000     2.73785E-03
         TOTAL TIME 2.98080E+07 4.96800E+05  8280.0      345.00     0.94456    


end timestep


start timestep kper="346" kstp="1" mode="normal"

 #Stressperiod Save Options

 BEGIN READING OUTPUT CONTROL FOR STRESS PERIOD 346
      ALL TIME STEPS WILL BE SAVED
      ALL TIME STEPS WILL BE SAVED

 END READING OUTPUT CONTROL FOR STRESS PERIOD 346


 PROCESSING STORAGE PERIOD DATA
 END PROCESSING STORAGE PERIOD DATA


 STRESS PERIOD 346 IS TRANSIENT


 REUSING DRNS FROM LAST STRESS PERIOD

 REUSING RIVS FROM LAST STRESS PERIOD

 REUSING RIVS FROM LAST STRESS PERIOD

 REUSING RCHS FROM LAST STRESS PERIOD
 UBDSV06 SAVING              DRN IN MODEL GWF_1            PACKAGE GWF_1           CONNECTED TO MODEL GWF_1            PACKAGE DRN_SYS1         ON UNIT   1018 AT TIME STEP      1, STRESS PERIOD    346
 UBDSV06 SAVING              RIV IN MODEL GWF_1            PACKAGE GWF_1           CONNECTED TO MODEL GWF_1            PACKAGE RIV_SYS1         ON UNIT   1018 AT TIME STEP      1, STRESS PERIOD    346
 UBDSV06 SAVING              RIV IN MODEL GWF_1            PACKAGE GWF_1           CONNECTED TO MODEL GWF_1            PACKAGE RIV_SYS2         ON UNIT   1018 AT TIME STEP      1, STRESS PERIOD    346
 UBDSV06 SAVING              RCH IN MODEL GWF_1            PACKAGE GWF_1           CONNECTED TO MODEL GWF_1            PACKAGE RCH_MSW          ON UNIT   1018 AT TIME STEP      1, STRESS PERIOD    346

 HEAD WILL BE SAVED ON UNIT 1017 AT END OF TIME STEP    1, STRESS PERIOD  346


  VOLUME BUDGET FOR ENTIRE MODEL AT END OF TIME STEP    1, STRESS PERIOD 346
  ---------------------------------------------------------------------------------------------------

     CUMULATIVE VOLUME      L**3       RATES FOR THIS TIME STEP      L**3/T          PACKAGE NAME    
     ------------------                 ------------------------                     ----------------

           IN:                                      IN:
           ---                                      ---
              STO-SS =      234998.8724                STO-SS =         104.5239     STORAGE                          
                 DRN =           0.0000                   DRN =           0.0000     DRN_SYS1                         
                 RIV =      273812.6642                   RIV =         741.7100     RIV_SYS1                         
                 RIV =           0.0000                   RIV =           0.0000     RIV_SYS2                         
                 RCH =      459311.8313                   RCH =        1613.0694     RCH_MSW                          

            TOTAL IN =      968123.3679              TOTAL IN =        2459.3033

          OUT:                                     OUT:
          ----                                     ----
              STO-SS =       50292.0334                STO-SS =          19.0237     STORAGE                          
                 DRN =       18083.1940                   DRN =          50.2466     DRN_SYS1                         
                 RIV =      842020.4951                   RIV =        2248.5701     RIV_SYS1                         
                 RIV =       51239.2536                   RIV =         141.4693     RIV_SYS2                         
                 RCH =        6488.4405                   RCH =           0.0000     RCH_MSW                          

           TOTAL OUT =      968123.4165             TOTAL OUT =        2459.3096

            IN - OUT =      -4.8595E-02              IN - OUT =      -6.2642E-03

 PERCENT DISCREPANCY =          -0.00     PERCENT DISCREPANCY =          -0.00




         TIME SUMMARY AT END OF TIME STEP    1 IN STRESS PERIOD  346
                    SECONDS     MINUTES      HOURS       DAYS        YEARS
                    -----------------------------------------------------------
   TIME STEP LENGTH  86400.      1440.0      24.000      1.0000     2.73785E-03
 STRESS PERIOD TIME  86400.      1440.0      24.000      1.0000     2.73785E-03
         TOTAL TIME 2.98944E+07 4.98240E+05  8304.0      346.00     0.94730    


end timestep


start timestep kper="347" kstp="1" mode="normal"

 #Stressperiod Save Options

 BEGIN READING OUTPUT CONTROL FOR STRESS PERIOD 347
      ALL TIME STEPS WILL BE SAVED
      ALL TIME STEPS WILL BE SAVED

 END READING OUTPUT CONTROL FOR STRESS PERIOD 347


 PROCESSING STORAGE PERIOD DATA
 END PROCESSING STORAGE PERIOD DATA


 STRESS PERIOD 347 IS TRANSIENT


 REUSING DRNS FROM LAST STRESS PERIOD

 REUSING RIVS FROM LAST STRESS PERIOD

 REUSING RIVS FROM LAST STRESS PERIOD

 REUSING RCHS FROM LAST STRESS PERIOD
 UBDSV06 SAVING              DRN IN MODEL GWF_1            PACKAGE GWF_1           CONNECTED TO MODEL GWF_1            PACKAGE DRN_SYS1         ON UNIT   1018 AT TIME STEP      1, STRESS PERIOD    347
 UBDSV06 SAVING              RIV IN MODEL GWF_1            PACKAGE GWF_1           CONNECTED TO MODEL GWF_1            PACKAGE RIV_SYS1         ON UNIT   1018 AT TIME STEP      1, STRESS PERIOD    347
 UBDSV06 SAVING              RIV IN MODEL GWF_1            PACKAGE GWF_1           CONNECTED TO MODEL GWF_1            PACKAGE RIV_SYS2         ON UNIT   1018 AT TIME STEP      1, STRESS PERIOD    347
 UBDSV06 SAVING              RCH IN MODEL GWF_1            PACKAGE GWF_1           CONNECTED TO MODEL GWF_1            PACKAGE RCH_MSW          ON UNIT   1018 AT TIME STEP      1, STRESS PERIOD    347

 HEAD WILL BE SAVED ON UNIT 1017 AT END OF TIME STEP    1, STRESS PERIOD  347


  VOLUME BUDGET FOR ENTIRE MODEL AT END OF TIME STEP    1, STRESS PERIOD 347
  ---------------------------------------------------------------------------------------------------

     CUMULATIVE VOLUME      L**3       RATES FOR THIS TIME STEP      L**3/T          PACKAGE NAME    
     ------------------                 ------------------------                     ----------------

           IN:                                      IN:
           ---                                      ---
              STO-SS =      235030.4314                STO-SS =          31.5590     STORAGE                          
                 DRN =           0.0000                   DRN =           0.0000     DRN_SYS1                         
                 RIV =      274544.2484                   RIV =         731.5842     RIV_SYS1                         
                 RIV =           0.0000                   RIV =           0.0000     RIV_SYS2                         
                 RCH =      461099.4950                   RCH =        1787.6637     RCH_MSW                          

            TOTAL IN =      970674.1748              TOTAL IN =        2550.8069

          OUT:                                     OUT:
          ----                                     ----
              STO-SS =       50381.1959                STO-SS =          89.1625     STORAGE                          
                 DRN =       18133.4215                   DRN =          50.2275     DRN_SYS1                         
                 RIV =      844290.2819                   RIV =        2269.7868     RIV_SYS1                         
                 RIV =       51380.8794                   RIV =         141.6259     RIV_SYS2                         
                 RCH =        6488.4405                   RCH =           0.0000     RCH_MSW                          

           TOTAL OUT =      970674.2192             TOTAL OUT =        2550.8027

            IN - OUT =      -4.4408E-02              IN - OUT =       4.1869E-03

 PERCENT DISCREPANCY =          -0.00     PERCENT DISCREPANCY =           0.00




         TIME SUMMARY AT END OF TIME STEP    1 IN STRESS PERIOD  347
                    SECONDS     MINUTES      HOURS       DAYS        YEARS
                    -----------------------------------------------------------
   TIME STEP LENGTH  86400.      1440.0      24.000      1.0000     2.73785E-03
 STRESS PERIOD TIME  86400.      1440.0      24.000      1.0000     2.73785E-03
         TOTAL TIME 2.99808E+07 4.99680E+05  8328.0      347.00     0.95003    


end timestep


start timestep kper="348" kstp="1" mode="normal"

 #Stressperiod Save Options

 BEGIN READING OUTPUT CONTROL FOR STRESS PERIOD 348
      ALL TIME STEPS WILL BE SAVED
      ALL TIME STEPS WILL BE SAVED

 END READING OUTPUT CONTROL FOR STRESS PERIOD 348


 PROCESSING STORAGE PERIOD DATA
 END PROCESSING STORAGE PERIOD DATA


 STRESS PERIOD 348 IS TRANSIENT


 REUSING DRNS FROM LAST STRESS PERIOD

 REUSING RIVS FROM LAST STRESS PERIOD

 REUSING RIVS FROM LAST STRESS PERIOD

 REUSING RCHS FROM LAST STRESS PERIOD
 UBDSV06 SAVING              DRN IN MODEL GWF_1            PACKAGE GWF_1           CONNECTED TO MODEL GWF_1            PACKAGE DRN_SYS1         ON UNIT   1018 AT TIME STEP      1, STRESS PERIOD    348
 UBDSV06 SAVING              RIV IN MODEL GWF_1            PACKAGE GWF_1           CONNECTED TO MODEL GWF_1            PACKAGE RIV_SYS1         ON UNIT   1018 AT TIME STEP      1, STRESS PERIOD    348
 UBDSV06 SAVING              RIV IN MODEL GWF_1            PACKAGE GWF_1           CONNECTED TO MODEL GWF_1            PACKAGE RIV_SYS2         ON UNIT   1018 AT TIME STEP      1, STRESS PERIOD    348
 UBDSV06 SAVING              RCH IN MODEL GWF_1            PACKAGE GWF_1           CONNECTED TO MODEL GWF_1            PACKAGE RCH_MSW          ON UNIT   1018 AT TIME STEP      1, STRESS PERIOD    348

 HEAD WILL BE SAVED ON UNIT 1017 AT END OF TIME STEP    1, STRESS PERIOD  348


  VOLUME BUDGET FOR ENTIRE MODEL AT END OF TIME STEP    1, STRESS PERIOD 348
  ---------------------------------------------------------------------------------------------------

     CUMULATIVE VOLUME      L**3       RATES FOR THIS TIME STEP      L**3/T          PACKAGE NAME    
     ------------------                 ------------------------                     ----------------

           IN:                                      IN:
           ---                                      ---
              STO-SS =      235039.7625                STO-SS =           9.3311     STORAGE                          
                 DRN =           0.0000                   DRN =           0.0000     DRN_SYS1                         
                 RIV =      275264.9227                   RIV =         720.6743     RIV_SYS1                         
                 RIV =           0.0000                   RIV =           0.0000     RIV_SYS2                         
                 RCH =      462990.3463                   RCH =        1890.8513     RCH_MSW                          

            TOTAL IN =      973295.0315              TOTAL IN =        2620.8567

          OUT:                                     OUT:
          ----                                     ----
              STO-SS =       50517.1501                STO-SS =         135.9542     STORAGE                          
                 DRN =       18183.7750                   DRN =          50.3535     DRN_SYS1                         
                 RIV =      846582.6579                   RIV =        2292.3760     RIV_SYS1                         
                 RIV =       51523.0494                   RIV =         142.1700     RIV_SYS2                         
                 RCH =        6488.4405                   RCH =           0.0000     RCH_MSW                          

           TOTAL OUT =      973295.0728             TOTAL OUT =        2620.8536

            IN - OUT =      -4.1318E-02              IN - OUT =       3.0897E-03

 PERCENT DISCREPANCY =          -0.00     PERCENT DISCREPANCY =           0.00




         TIME SUMMARY AT END OF TIME STEP    1 IN STRESS PERIOD  348
                    SECONDS     MINUTES      HOURS       DAYS        YEARS
                    -----------------------------------------------------------
   TIME STEP LENGTH  86400.      1440.0      24.000      1.0000     2.73785E-03
 STRESS PERIOD TIME  86400.      1440.0      24.000      1.0000     2.73785E-03
         TOTAL TIME 3.00672E+07 5.01120E+05  8352.0      348.00     0.95277    


end timestep


start timestep kper="349" kstp="1" mode="normal"

 #Stressperiod Save Options

 BEGIN READING OUTPUT CONTROL FOR STRESS PERIOD 349
      ALL TIME STEPS WILL BE SAVED
      ALL TIME STEPS WILL BE SAVED

 END READING OUTPUT CONTROL FOR STRESS PERIOD 349


 PROCESSING STORAGE PERIOD DATA
 END PROCESSING STORAGE PERIOD DATA


 STRESS PERIOD 349 IS TRANSIENT


 REUSING DRNS FROM LAST STRESS PERIOD

 REUSING RIVS FROM LAST STRESS PERIOD

 REUSING RIVS FROM LAST STRESS PERIOD

 REUSING RCHS FROM LAST STRESS PERIOD
 UBDSV06 SAVING              DRN IN MODEL GWF_1            PACKAGE GWF_1           CONNECTED TO MODEL GWF_1            PACKAGE DRN_SYS1         ON UNIT   1018 AT TIME STEP      1, STRESS PERIOD    349
 UBDSV06 SAVING              RIV IN MODEL GWF_1            PACKAGE GWF_1           CONNECTED TO MODEL GWF_1            PACKAGE RIV_SYS1         ON UNIT   1018 AT TIME STEP      1, STRESS PERIOD    349
 UBDSV06 SAVING              RIV IN MODEL GWF_1            PACKAGE GWF_1           CONNECTED TO MODEL GWF_1            PACKAGE RIV_SYS2         ON UNIT   1018 AT TIME STEP      1, STRESS PERIOD    349
 UBDSV06 SAVING              RCH IN MODEL GWF_1            PACKAGE GWF_1           CONNECTED TO MODEL GWF_1            PACKAGE RCH_MSW          ON UNIT   1018 AT TIME STEP      1, STRESS PERIOD    349

 HEAD WILL BE SAVED ON UNIT 1017 AT END OF TIME STEP    1, STRESS PERIOD  349


  VOLUME BUDGET FOR ENTIRE MODEL AT END OF TIME STEP    1, STRESS PERIOD 349
  ---------------------------------------------------------------------------------------------------

     CUMULATIVE VOLUME      L**3       RATES FOR THIS TIME STEP      L**3/T          PACKAGE NAME    
     ------------------                 ------------------------                     ----------------

           IN:                                      IN:
           ---                                      ---
              STO-SS =      235042.4219                STO-SS =           2.6593     STORAGE                          
                 DRN =           0.0000                   DRN =           0.0000     DRN_SYS1                         
                 RIV =      275977.5902                   RIV =         712.6675     RIV_SYS1                         
                 RIV =           0.0000                   RIV =           0.0000     RIV_SYS2                         
                 RCH =      464908.0919                   RCH =        1917.7456     RCH_MSW                          

            TOTAL IN =      975928.1039              TOTAL IN =        2633.0724

          OUT:                                     OUT:
          ----                                     ----
              STO-SS =       50648.8595                STO-SS =         131.7094     STORAGE                          
                 DRN =       18234.2954                   DRN =          50.5204     DRN_SYS1                         
                 RIV =      848890.7035                   RIV =        2308.0456     RIV_SYS1                         
                 RIV =       51665.8456                   RIV =         142.7962     RIV_SYS2                         
                 RCH =        6488.4405                   RCH =           0.0000     RCH_MSW                          

           TOTAL OUT =      975928.1444             TOTAL OUT =        2633.0715

            IN - OUT =      -4.0423E-02              IN - OUT =       8.9460E-04

 PERCENT DISCREPANCY =          -0.00     PERCENT DISCREPANCY =           0.00




         TIME SUMMARY AT END OF TIME STEP    1 IN STRESS PERIOD  349
                    SECONDS     MINUTES      HOURS       DAYS        YEARS
                    -----------------------------------------------------------
   TIME STEP LENGTH  86400.      1440.0      24.000      1.0000     2.73785E-03
 STRESS PERIOD TIME  86400.      1440.0      24.000      1.0000     2.73785E-03
         TOTAL TIME 3.01536E+07 5.02560E+05  8376.0      349.00     0.95551    


end timestep


start timestep kper="350" kstp="1" mode="normal"

 #Stressperiod Save Options

 BEGIN READING OUTPUT CONTROL FOR STRESS PERIOD 350
      ALL TIME STEPS WILL BE SAVED
      ALL TIME STEPS WILL BE SAVED

 END READING OUTPUT CONTROL FOR STRESS PERIOD 350


 PROCESSING STORAGE PERIOD DATA
 END PROCESSING STORAGE PERIOD DATA


 STRESS PERIOD 350 IS TRANSIENT


 REUSING DRNS FROM LAST STRESS PERIOD

 REUSING RIVS FROM LAST STRESS PERIOD

 REUSING RIVS FROM LAST STRESS PERIOD

 REUSING RCHS FROM LAST STRESS PERIOD
 UBDSV06 SAVING              DRN IN MODEL GWF_1            PACKAGE GWF_1           CONNECTED TO MODEL GWF_1            PACKAGE DRN_SYS1         ON UNIT   1018 AT TIME STEP      1, STRESS PERIOD    350
 UBDSV06 SAVING              RIV IN MODEL GWF_1            PACKAGE GWF_1           CONNECTED TO MODEL GWF_1            PACKAGE RIV_SYS1         ON UNIT   1018 AT TIME STEP      1, STRESS PERIOD    350
 UBDSV06 SAVING              RIV IN MODEL GWF_1            PACKAGE GWF_1           CONNECTED TO MODEL GWF_1            PACKAGE RIV_SYS2         ON UNIT   1018 AT TIME STEP      1, STRESS PERIOD    350
 UBDSV06 SAVING              RCH IN MODEL GWF_1            PACKAGE GWF_1           CONNECTED TO MODEL GWF_1            PACKAGE RCH_MSW          ON UNIT   1018 AT TIME STEP      1, STRESS PERIOD    350

 HEAD WILL BE SAVED ON UNIT 1017 AT END OF TIME STEP    1, STRESS PERIOD  350


  VOLUME BUDGET FOR ENTIRE MODEL AT END OF TIME STEP    1, STRESS PERIOD 350
  ---------------------------------------------------------------------------------------------------

     CUMULATIVE VOLUME      L**3       RATES FOR THIS TIME STEP      L**3/T          PACKAGE NAME    
     ------------------                 ------------------------                     ----------------

           IN:                                      IN:
           ---                                      ---
              STO-SS =      235043.2741                STO-SS =           0.8522     STORAGE                          
                 DRN =           0.0000                   DRN =           0.0000     DRN_SYS1                         
                 RIV =      276685.5754                   RIV =         707.9852     RIV_SYS1                         
                 RIV =           0.0000                   RIV =           0.0000     RIV_SYS2                         
                 RCH =      466811.4655                   RCH =        1903.3737     RCH_MSW                          

            TOTAL IN =      978540.3150              TOTAL IN =        2612.2111

          OUT:                                     OUT:
          ----                                     ----
              STO-SS =       50750.9569                STO-SS =         102.0975     STORAGE                          
                 DRN =       18284.9664                   DRN =          50.6710     DRN_SYS1                         
                 RIV =      851206.8021                   RIV =        2316.0986     RIV_SYS1                         
                 RIV =       51809.1883                   RIV =         143.3428     RIV_SYS2                         
                 RCH =        6488.4405                   RCH =           0.0000     RCH_MSW                          

           TOTAL OUT =      978540.3542             TOTAL OUT =        2612.2099

            IN - OUT =      -3.9185E-02              IN - OUT =       1.2382E-03

 PERCENT DISCREPANCY =          -0.00     PERCENT DISCREPANCY =           0.00




         TIME SUMMARY AT END OF TIME STEP    1 IN STRESS PERIOD  350
                    SECONDS     MINUTES      HOURS       DAYS        YEARS
                    -----------------------------------------------------------
   TIME STEP LENGTH  86400.      1440.0      24.000      1.0000     2.73785E-03
 STRESS PERIOD TIME  86400.      1440.0      24.000      1.0000     2.73785E-03
         TOTAL TIME 3.02400E+07 5.04000E+05  8400.0      350.00     0.95825    


end timestep


start timestep kper="351" kstp="1" mode="normal"

 #Stressperiod Save Options

 BEGIN READING OUTPUT CONTROL FOR STRESS PERIOD 351
      ALL TIME STEPS WILL BE SAVED
      ALL TIME STEPS WILL BE SAVED

 END READING OUTPUT CONTROL FOR STRESS PERIOD 351


 PROCESSING STORAGE PERIOD DATA
 END PROCESSING STORAGE PERIOD DATA


 STRESS PERIOD 351 IS TRANSIENT


 REUSING DRNS FROM LAST STRESS PERIOD

 REUSING RIVS FROM LAST STRESS PERIOD

 REUSING RIVS FROM LAST STRESS PERIOD

 REUSING RCHS FROM LAST STRESS PERIOD
 UBDSV06 SAVING              DRN IN MODEL GWF_1            PACKAGE GWF_1           CONNECTED TO MODEL GWF_1            PACKAGE DRN_SYS1         ON UNIT   1018 AT TIME STEP      1, STRESS PERIOD    351
 UBDSV06 SAVING              RIV IN MODEL GWF_1            PACKAGE GWF_1           CONNECTED TO MODEL GWF_1            PACKAGE RIV_SYS1         ON UNIT   1018 AT TIME STEP      1, STRESS PERIOD    351
 UBDSV06 SAVING              RIV IN MODEL GWF_1            PACKAGE GWF_1           CONNECTED TO MODEL GWF_1            PACKAGE RIV_SYS2         ON UNIT   1018 AT TIME STEP      1, STRESS PERIOD    351
 UBDSV06 SAVING              RCH IN MODEL GWF_1            PACKAGE GWF_1           CONNECTED TO MODEL GWF_1            PACKAGE RCH_MSW          ON UNIT   1018 AT TIME STEP      1, STRESS PERIOD    351

 HEAD WILL BE SAVED ON UNIT 1017 AT END OF TIME STEP    1, STRESS PERIOD  351


  VOLUME BUDGET FOR ENTIRE MODEL AT END OF TIME STEP    1, STRESS PERIOD 351
  ---------------------------------------------------------------------------------------------------

     CUMULATIVE VOLUME      L**3       RATES FOR THIS TIME STEP      L**3/T          PACKAGE NAME    
     ------------------                 ------------------------                     ----------------

           IN:                                      IN:
           ---                                      ---
              STO-SS =      235044.5188                STO-SS =           1.2447     STORAGE                          
                 DRN =           0.0000                   DRN =           0.0000     DRN_SYS1                         
                 RIV =      277391.8150                   RIV =         706.2396     RIV_SYS1                         
                 RIV =           0.0000                   RIV =           0.0000     RIV_SYS2                         
                 RCH =      468678.0128                   RCH =        1866.5472     RCH_MSW                          

            TOTAL IN =      981114.3466              TOTAL IN =        2574.0316

          OUT:                                     OUT:
          ----                                     ----
              STO-SS =       50812.8023                STO-SS =          61.8454     STORAGE                          
                 DRN =       18335.7404                   DRN =          50.7739     DRN_SYS1                         
                 RIV =      853524.4674                   RIV =        2317.6653     RIV_SYS1                         
                 RIV =       51952.9137                   RIV =         143.7254     RIV_SYS2                         
                 RCH =        6488.4405                   RCH =           0.0000     RCH_MSW                          

           TOTAL OUT =      981114.3643             TOTAL OUT =        2574.0101

            IN - OUT =      -1.7684E-02              IN - OUT =       2.1502E-02

 PERCENT DISCREPANCY =          -0.00     PERCENT DISCREPANCY =           0.00




         TIME SUMMARY AT END OF TIME STEP    1 IN STRESS PERIOD  351
                    SECONDS     MINUTES      HOURS       DAYS        YEARS
                    -----------------------------------------------------------
   TIME STEP LENGTH  86400.      1440.0      24.000      1.0000     2.73785E-03
 STRESS PERIOD TIME  86400.      1440.0      24.000      1.0000     2.73785E-03
         TOTAL TIME 3.03264E+07 5.05440E+05  8424.0      351.00     0.96099    


end timestep


start timestep kper="352" kstp="1" mode="normal"

 #Stressperiod Save Options

 BEGIN READING OUTPUT CONTROL FOR STRESS PERIOD 352
      ALL TIME STEPS WILL BE SAVED
      ALL TIME STEPS WILL BE SAVED

 END READING OUTPUT CONTROL FOR STRESS PERIOD 352


 PROCESSING STORAGE PERIOD DATA
 END PROCESSING STORAGE PERIOD DATA


 STRESS PERIOD 352 IS TRANSIENT


 REUSING DRNS FROM LAST STRESS PERIOD

 REUSING RIVS FROM LAST STRESS PERIOD

 REUSING RIVS FROM LAST STRESS PERIOD

 REUSING RCHS FROM LAST STRESS PERIOD
 UBDSV06 SAVING              DRN IN MODEL GWF_1            PACKAGE GWF_1           CONNECTED TO MODEL GWF_1            PACKAGE DRN_SYS1         ON UNIT   1018 AT TIME STEP      1, STRESS PERIOD    352
 UBDSV06 SAVING              RIV IN MODEL GWF_1            PACKAGE GWF_1           CONNECTED TO MODEL GWF_1            PACKAGE RIV_SYS1         ON UNIT   1018 AT TIME STEP      1, STRESS PERIOD    352
 UBDSV06 SAVING              RIV IN MODEL GWF_1            PACKAGE GWF_1           CONNECTED TO MODEL GWF_1            PACKAGE RIV_SYS2         ON UNIT   1018 AT TIME STEP      1, STRESS PERIOD    352
 UBDSV06 SAVING              RCH IN MODEL GWF_1            PACKAGE GWF_1           CONNECTED TO MODEL GWF_1            PACKAGE RCH_MSW          ON UNIT   1018 AT TIME STEP      1, STRESS PERIOD    352

 HEAD WILL BE SAVED ON UNIT 1017 AT END OF TIME STEP    1, STRESS PERIOD  352


  VOLUME BUDGET FOR ENTIRE MODEL AT END OF TIME STEP    1, STRESS PERIOD 352
  ---------------------------------------------------------------------------------------------------

     CUMULATIVE VOLUME      L**3       RATES FOR THIS TIME STEP      L**3/T          PACKAGE NAME    
     ------------------                 ------------------------                     ----------------

           IN:                                      IN:
           ---                                      ---
              STO-SS =      235046.3373                STO-SS =           1.8185     STORAGE                          
                 DRN =           0.0000                   DRN =           0.0000     DRN_SYS1                         
                 RIV =      278097.6772                   RIV =         705.8622     RIV_SYS1                         
                 RIV =           0.0000                   RIV =           0.0000     RIV_SYS2                         
                 RCH =      470519.4011                   RCH =        1841.3884     RCH_MSW                          

            TOTAL IN =      983663.4157              TOTAL IN =        2549.0691

          OUT:                                     OUT:
          ----                                     ----
              STO-SS =       50850.5323                STO-SS =          37.7299     STORAGE                          
                 DRN =       18386.5795                   DRN =          50.8391     DRN_SYS1                         
                 RIV =      855840.9630                   RIV =        2316.4956     RIV_SYS1                         
                 RIV =       52096.8958                   RIV =         143.9821     RIV_SYS2                         
                 RCH =        6488.4405                   RCH =           0.0000     RCH_MSW                          

           TOTAL OUT =      983663.4110             TOTAL OUT =        2549.0467

            IN - OUT =       4.7050E-03              IN - OUT =       2.2389E-02

 PERCENT DISCREPANCY =           0.00     PERCENT DISCREPANCY =           0.00




         TIME SUMMARY AT END OF TIME STEP    1 IN STRESS PERIOD  352
                    SECONDS     MINUTES      HOURS       DAYS        YEARS
                    -----------------------------------------------------------
   TIME STEP LENGTH  86400.      1440.0      24.000      1.0000     2.73785E-03
 STRESS PERIOD TIME  86400.      1440.0      24.000      1.0000     2.73785E-03
         TOTAL TIME 3.04128E+07 5.06880E+05  8448.0      352.00     0.96372    


end timestep


start timestep kper="353" kstp="1" mode="normal"

 #Stressperiod Save Options

 BEGIN READING OUTPUT CONTROL FOR STRESS PERIOD 353
      ALL TIME STEPS WILL BE SAVED
      ALL TIME STEPS WILL BE SAVED

 END READING OUTPUT CONTROL FOR STRESS PERIOD 353


 PROCESSING STORAGE PERIOD DATA
 END PROCESSING STORAGE PERIOD DATA


 STRESS PERIOD 353 IS TRANSIENT


 REUSING DRNS FROM LAST STRESS PERIOD

 REUSING RIVS FROM LAST STRESS PERIOD

 REUSING RIVS FROM LAST STRESS PERIOD

 REUSING RCHS FROM LAST STRESS PERIOD
 UBDSV06 SAVING              DRN IN MODEL GWF_1            PACKAGE GWF_1           CONNECTED TO MODEL GWF_1            PACKAGE DRN_SYS1         ON UNIT   1018 AT TIME STEP      1, STRESS PERIOD    353
 UBDSV06 SAVING              RIV IN MODEL GWF_1            PACKAGE GWF_1           CONNECTED TO MODEL GWF_1            PACKAGE RIV_SYS1         ON UNIT   1018 AT TIME STEP      1, STRESS PERIOD    353
 UBDSV06 SAVING              RIV IN MODEL GWF_1            PACKAGE GWF_1           CONNECTED TO MODEL GWF_1            PACKAGE RIV_SYS2         ON UNIT   1018 AT TIME STEP      1, STRESS PERIOD    353
 UBDSV06 SAVING              RCH IN MODEL GWF_1            PACKAGE GWF_1           CONNECTED TO MODEL GWF_1            PACKAGE RCH_MSW          ON UNIT   1018 AT TIME STEP      1, STRESS PERIOD    353

 HEAD WILL BE SAVED ON UNIT 1017 AT END OF TIME STEP    1, STRESS PERIOD  353


  VOLUME BUDGET FOR ENTIRE MODEL AT END OF TIME STEP    1, STRESS PERIOD 353
  ---------------------------------------------------------------------------------------------------

     CUMULATIVE VOLUME      L**3       RATES FOR THIS TIME STEP      L**3/T          PACKAGE NAME    
     ------------------                 ------------------------                     ----------------

           IN:                                      IN:
           ---                                      ---
              STO-SS =      235057.5272                STO-SS =          11.1899     STORAGE                          
                 DRN =           0.0000                   DRN =           0.0000     DRN_SYS1                         
                 RIV =      278804.6317                   RIV =         706.9545     RIV_SYS1                         
                 RIV =           0.0000                   RIV =           0.0000     RIV_SYS2                         
                 RCH =      472321.6193                   RCH =        1802.2182     RCH_MSW                          

            TOTAL IN =      986183.7783              TOTAL IN =        2520.3626

          OUT:                                     OUT:
          ----                                     ----
              STO-SS =       50863.6694                STO-SS =          13.1371     STORAGE                          
                 DRN =       18437.4373                   DRN =          50.8578     DRN_SYS1                         
                 RIV =      858153.2268                   RIV =        2312.2638     RIV_SYS1                         
                 RIV =       52240.9853                   RIV =         144.0896     RIV_SYS2                         
                 RCH =        6488.4405                   RCH =           0.0000     RCH_MSW                          

           TOTAL OUT =      986183.7592             TOTAL OUT =        2520.3482

            IN - OUT =       1.9073E-02              IN - OUT =       1.4368E-02

 PERCENT DISCREPANCY =           0.00     PERCENT DISCREPANCY =           0.00




         TIME SUMMARY AT END OF TIME STEP    1 IN STRESS PERIOD  353
                    SECONDS     MINUTES      HOURS       DAYS        YEARS
                    -----------------------------------------------------------
   TIME STEP LENGTH  86400.      1440.0      24.000      1.0000     2.73785E-03
 STRESS PERIOD TIME  86400.      1440.0      24.000      1.0000     2.73785E-03
         TOTAL TIME 3.04992E+07 5.08320E+05  8472.0      353.00     0.96646    


end timestep


start timestep kper="354" kstp="1" mode="normal"

 #Stressperiod Save Options

 BEGIN READING OUTPUT CONTROL FOR STRESS PERIOD 354
      ALL TIME STEPS WILL BE SAVED
      ALL TIME STEPS WILL BE SAVED

 END READING OUTPUT CONTROL FOR STRESS PERIOD 354


 PROCESSING STORAGE PERIOD DATA
 END PROCESSING STORAGE PERIOD DATA


 STRESS PERIOD 354 IS TRANSIENT


 REUSING DRNS FROM LAST STRESS PERIOD

 REUSING RIVS FROM LAST STRESS PERIOD

 REUSING RIVS FROM LAST STRESS PERIOD

 REUSING RCHS FROM LAST STRESS PERIOD
 UBDSV06 SAVING              DRN IN MODEL GWF_1            PACKAGE GWF_1           CONNECTED TO MODEL GWF_1            PACKAGE DRN_SYS1         ON UNIT   1018 AT TIME STEP      1, STRESS PERIOD    354
 UBDSV06 SAVING              RIV IN MODEL GWF_1            PACKAGE GWF_1           CONNECTED TO MODEL GWF_1            PACKAGE RIV_SYS1         ON UNIT   1018 AT TIME STEP      1, STRESS PERIOD    354
 UBDSV06 SAVING              RIV IN MODEL GWF_1            PACKAGE GWF_1           CONNECTED TO MODEL GWF_1            PACKAGE RIV_SYS2         ON UNIT   1018 AT TIME STEP      1, STRESS PERIOD    354
 UBDSV06 SAVING              RCH IN MODEL GWF_1            PACKAGE GWF_1           CONNECTED TO MODEL GWF_1            PACKAGE RCH_MSW          ON UNIT   1018 AT TIME STEP      1, STRESS PERIOD    354

 HEAD WILL BE SAVED ON UNIT 1017 AT END OF TIME STEP    1, STRESS PERIOD  354


  VOLUME BUDGET FOR ENTIRE MODEL AT END OF TIME STEP    1, STRESS PERIOD 354
  ---------------------------------------------------------------------------------------------------

     CUMULATIVE VOLUME      L**3       RATES FOR THIS TIME STEP      L**3/T          PACKAGE NAME    
     ------------------                 ------------------------                     ----------------

           IN:                                      IN:
           ---                                      ---
              STO-SS =      235096.1670                STO-SS =          38.6398     STORAGE                          
                 DRN =           0.0000                   DRN =           0.0000     DRN_SYS1                         
                 RIV =      279514.4116                   RIV =         709.7798     RIV_SYS1                         
                 RIV =           0.0000                   RIV =           0.0000     RIV_SYS2                         
                 RCH =      474073.3039                   RCH =        1751.6845     RCH_MSW                          

            TOTAL IN =      988683.8825              TOTAL IN =        2500.1042

          OUT:                                     OUT:
          ----                                     ----
              STO-SS =       50864.5546                STO-SS =           0.8852     STORAGE                          
                 DRN =       18488.2518                   DRN =          50.8145     DRN_SYS1                         
                 RIV =      860457.6401                   RIV =        2304.4133     RIV_SYS1                         
                 RIV =       52384.9938                   RIV =         144.0085     RIV_SYS2                         
                 RCH =        6488.4405                   RCH =           0.0000     RCH_MSW                          

           TOTAL OUT =      988683.8808             TOTAL OUT =        2500.1216

            IN - OUT =       1.7219E-03              IN - OUT =      -1.7351E-02

 PERCENT DISCREPANCY =           0.00     PERCENT DISCREPANCY =          -0.00




         TIME SUMMARY AT END OF TIME STEP    1 IN STRESS PERIOD  354
                    SECONDS     MINUTES      HOURS       DAYS        YEARS
                    -----------------------------------------------------------
   TIME STEP LENGTH  86400.      1440.0      24.000      1.0000     2.73785E-03
 STRESS PERIOD TIME  86400.      1440.0      24.000      1.0000     2.73785E-03
         TOTAL TIME 3.05856E+07 5.09760E+05  8496.0      354.00     0.96920    


end timestep


start timestep kper="355" kstp="1" mode="normal"

 #Stressperiod Save Options

 BEGIN READING OUTPUT CONTROL FOR STRESS PERIOD 355
      ALL TIME STEPS WILL BE SAVED
      ALL TIME STEPS WILL BE SAVED

 END READING OUTPUT CONTROL FOR STRESS PERIOD 355


 PROCESSING STORAGE PERIOD DATA
 END PROCESSING STORAGE PERIOD DATA


 STRESS PERIOD 355 IS TRANSIENT


 REUSING DRNS FROM LAST STRESS PERIOD

 REUSING RIVS FROM LAST STRESS PERIOD

 REUSING RIVS FROM LAST STRESS PERIOD

 REUSING RCHS FROM LAST STRESS PERIOD
 UBDSV06 SAVING              DRN IN MODEL GWF_1            PACKAGE GWF_1           CONNECTED TO MODEL GWF_1            PACKAGE DRN_SYS1         ON UNIT   1018 AT TIME STEP      1, STRESS PERIOD    355
 UBDSV06 SAVING              RIV IN MODEL GWF_1            PACKAGE GWF_1           CONNECTED TO MODEL GWF_1            PACKAGE RIV_SYS1         ON UNIT   1018 AT TIME STEP      1, STRESS PERIOD    355
 UBDSV06 SAVING              RIV IN MODEL GWF_1            PACKAGE GWF_1           CONNECTED TO MODEL GWF_1            PACKAGE RIV_SYS2         ON UNIT   1018 AT TIME STEP      1, STRESS PERIOD    355
 UBDSV06 SAVING              RCH IN MODEL GWF_1            PACKAGE GWF_1           CONNECTED TO MODEL GWF_1            PACKAGE RCH_MSW          ON UNIT   1018 AT TIME STEP      1, STRESS PERIOD    355

 HEAD WILL BE SAVED ON UNIT 1017 AT END OF TIME STEP    1, STRESS PERIOD  355


  VOLUME BUDGET FOR ENTIRE MODEL AT END OF TIME STEP    1, STRESS PERIOD 355
  ---------------------------------------------------------------------------------------------------

     CUMULATIVE VOLUME      L**3       RATES FOR THIS TIME STEP      L**3/T          PACKAGE NAME    
     ------------------                 ------------------------                     ----------------

           IN:                                      IN:
           ---                                      ---
              STO-SS =      235166.4144                STO-SS =          70.2473     STORAGE                          
                 DRN =           0.0000                   DRN =           0.0000     DRN_SYS1                         
                 RIV =      280228.0327                   RIV =         713.6212     RIV_SYS1                         
                 RIV =           0.0000                   RIV =           0.0000     RIV_SYS2                         
                 RCH =      475778.4843                   RCH =        1705.1804     RCH_MSW                          

            TOTAL IN =      991172.9314              TOTAL IN =        2489.0489

          OUT:                                     OUT:
          ----                                     ----
              STO-SS =       50864.5546                STO-SS =           0.0000     STORAGE                          
                 DRN =       18538.9681                   DRN =          50.7162     DRN_SYS1                         
                 RIV =      862752.2170                   RIV =        2294.5769     RIV_SYS1                         
                 RIV =       52528.7576                   RIV =         143.7637     RIV_SYS2                         
                 RCH =        6488.4405                   RCH =           0.0000     RCH_MSW                          

           TOTAL OUT =      991172.9376             TOTAL OUT =        2489.0569

            IN - OUT =      -6.2288E-03              IN - OUT =      -7.9506E-03

 PERCENT DISCREPANCY =          -0.00     PERCENT DISCREPANCY =          -0.00




         TIME SUMMARY AT END OF TIME STEP    1 IN STRESS PERIOD  355
                    SECONDS     MINUTES      HOURS       DAYS        YEARS
                    -----------------------------------------------------------
   TIME STEP LENGTH  86400.      1440.0      24.000      1.0000     2.73785E-03
 STRESS PERIOD TIME  86400.      1440.0      24.000      1.0000     2.73785E-03
         TOTAL TIME 3.06720E+07 5.11200E+05  8520.0      355.00     0.97194    


end timestep


start timestep kper="356" kstp="1" mode="normal"

 #Stressperiod Save Options

 BEGIN READING OUTPUT CONTROL FOR STRESS PERIOD 356
      ALL TIME STEPS WILL BE SAVED
      ALL TIME STEPS WILL BE SAVED

 END READING OUTPUT CONTROL FOR STRESS PERIOD 356


 PROCESSING STORAGE PERIOD DATA
 END PROCESSING STORAGE PERIOD DATA


 STRESS PERIOD 356 IS TRANSIENT


 REUSING DRNS FROM LAST STRESS PERIOD

 REUSING RIVS FROM LAST STRESS PERIOD

 REUSING RIVS FROM LAST STRESS PERIOD

 REUSING RCHS FROM LAST STRESS PERIOD
 UBDSV06 SAVING              DRN IN MODEL GWF_1            PACKAGE GWF_1           CONNECTED TO MODEL GWF_1            PACKAGE DRN_SYS1         ON UNIT   1018 AT TIME STEP      1, STRESS PERIOD    356
 UBDSV06 SAVING              RIV IN MODEL GWF_1            PACKAGE GWF_1           CONNECTED TO MODEL GWF_1            PACKAGE RIV_SYS1         ON UNIT   1018 AT TIME STEP      1, STRESS PERIOD    356
 UBDSV06 SAVING              RIV IN MODEL GWF_1            PACKAGE GWF_1           CONNECTED TO MODEL GWF_1            PACKAGE RIV_SYS2         ON UNIT   1018 AT TIME STEP      1, STRESS PERIOD    356
 UBDSV06 SAVING              RCH IN MODEL GWF_1            PACKAGE GWF_1           CONNECTED TO MODEL GWF_1            PACKAGE RCH_MSW          ON UNIT   1018 AT TIME STEP      1, STRESS PERIOD    356

 HEAD WILL BE SAVED ON UNIT 1017 AT END OF TIME STEP    1, STRESS PERIOD  356


  VOLUME BUDGET FOR ENTIRE MODEL AT END OF TIME STEP    1, STRESS PERIOD 356
  ---------------------------------------------------------------------------------------------------

     CUMULATIVE VOLUME      L**3       RATES FOR THIS TIME STEP      L**3/T          PACKAGE NAME    
     ------------------                 ------------------------                     ----------------

           IN:                                      IN:
           ---                                      ---
              STO-SS =      235273.4028                STO-SS =         106.9884     STORAGE                          
                 DRN =           0.0000                   DRN =           0.0000     DRN_SYS1                         
                 RIV =      280946.6221                   RIV =         718.5894     RIV_SYS1                         
                 RIV =           0.0000                   RIV =           0.0000     RIV_SYS2                         
                 RCH =      477429.3224                   RCH =        1650.8380     RCH_MSW                          

            TOTAL IN =      993649.3473              TOTAL IN =        2476.4159

          OUT:                                     OUT:
          ----                                     ----
              STO-SS =       50864.5546                STO-SS =           0.0000     STORAGE                          
                 DRN =       18589.5233                   DRN =          50.5552     DRN_SYS1                         
                 RIV =      865034.7441                   RIV =        2282.5272     RIV_SYS1                         
                 RIV =       52672.0948                   RIV =         143.3373     RIV_SYS2                         
                 RCH =        6488.4405                   RCH =           0.0000     RCH_MSW                          

           TOTAL OUT =      993649.3573             TOTAL OUT =        2476.4196

            IN - OUT =      -9.9736E-03              IN - OUT =      -3.7448E-03

 PERCENT DISCREPANCY =          -0.00     PERCENT DISCREPANCY =          -0.00




         TIME SUMMARY AT END OF TIME STEP    1 IN STRESS PERIOD  356
                    SECONDS     MINUTES      HOURS       DAYS        YEARS
                    -----------------------------------------------------------
   TIME STEP LENGTH  86400.      1440.0      24.000      1.0000     2.73785E-03
 STRESS PERIOD TIME  86400.      1440.0      24.000      1.0000     2.73785E-03
         TOTAL TIME 3.07584E+07 5.12640E+05  8544.0      356.00     0.97467    


end timestep


start timestep kper="357" kstp="1" mode="normal"

 #Stressperiod Save Options

 BEGIN READING OUTPUT CONTROL FOR STRESS PERIOD 357
      ALL TIME STEPS WILL BE SAVED
      ALL TIME STEPS WILL BE SAVED

 END READING OUTPUT CONTROL FOR STRESS PERIOD 357


 PROCESSING STORAGE PERIOD DATA
 END PROCESSING STORAGE PERIOD DATA


 STRESS PERIOD 357 IS TRANSIENT


 REUSING DRNS FROM LAST STRESS PERIOD

 REUSING RIVS FROM LAST STRESS PERIOD

 REUSING RIVS FROM LAST STRESS PERIOD

 REUSING RCHS FROM LAST STRESS PERIOD
 UBDSV06 SAVING              DRN IN MODEL GWF_1            PACKAGE GWF_1           CONNECTED TO MODEL GWF_1            PACKAGE DRN_SYS1         ON UNIT   1018 AT TIME STEP      1, STRESS PERIOD    357
 UBDSV06 SAVING              RIV IN MODEL GWF_1            PACKAGE GWF_1           CONNECTED TO MODEL GWF_1            PACKAGE RIV_SYS1         ON UNIT   1018 AT TIME STEP      1, STRESS PERIOD    357
 UBDSV06 SAVING              RIV IN MODEL GWF_1            PACKAGE GWF_1           CONNECTED TO MODEL GWF_1            PACKAGE RIV_SYS2         ON UNIT   1018 AT TIME STEP      1, STRESS PERIOD    357
 UBDSV06 SAVING              RCH IN MODEL GWF_1            PACKAGE GWF_1           CONNECTED TO MODEL GWF_1            PACKAGE RCH_MSW          ON UNIT   1018 AT TIME STEP      1, STRESS PERIOD    357

 HEAD WILL BE SAVED ON UNIT 1017 AT END OF TIME STEP    1, STRESS PERIOD  357


  VOLUME BUDGET FOR ENTIRE MODEL AT END OF TIME STEP    1, STRESS PERIOD 357
  ---------------------------------------------------------------------------------------------------

     CUMULATIVE VOLUME      L**3       RATES FOR THIS TIME STEP      L**3/T          PACKAGE NAME    
     ------------------                 ------------------------                     ----------------

           IN:                                      IN:
           ---                                      ---
              STO-SS =      235409.5099                STO-SS =         136.1071     STORAGE                          
                 DRN =           0.0000                   DRN =           0.0000     DRN_SYS1                         
                 RIV =      281670.8399                   RIV =         724.2178     RIV_SYS1                         
                 RIV =           0.0000                   RIV =           0.0000     RIV_SYS2                         
                 RCH =      479031.2889                   RCH =        1601.9666     RCH_MSW                          

            TOTAL IN =      996111.6388              TOTAL IN =        2462.2915

          OUT:                                     OUT:
          ----                                     ----
              STO-SS =       50864.5546                STO-SS =           0.0000     STORAGE                          
                 DRN =       18639.8673                   DRN =          50.3441     DRN_SYS1                         
                 RIV =      867303.9234                   RIV =        2269.1793     RIV_SYS1                         
                 RIV =       52814.8623                   RIV =         142.7675     RIV_SYS2                         
                 RCH =        6488.4405                   RCH =           0.0000     RCH_MSW                          

           TOTAL OUT =      996111.6481             TOTAL OUT =        2462.2909

            IN - OUT =      -9.3768E-03              IN - OUT =       5.9677E-04

 PERCENT DISCREPANCY =          -0.00     PERCENT DISCREPANCY =           0.00




         TIME SUMMARY AT END OF TIME STEP    1 IN STRESS PERIOD  357
                    SECONDS     MINUTES      HOURS       DAYS        YEARS
                    -----------------------------------------------------------
   TIME STEP LENGTH  86400.      1440.0      24.000      1.0000     2.73785E-03
 STRESS PERIOD TIME  86400.      1440.0      24.000      1.0000     2.73785E-03
         TOTAL TIME 3.08448E+07 5.14080E+05  8568.0      357.00     0.97741    


end timestep


start timestep kper="358" kstp="1" mode="normal"

 #Stressperiod Save Options

 BEGIN READING OUTPUT CONTROL FOR STRESS PERIOD 358
      ALL TIME STEPS WILL BE SAVED
      ALL TIME STEPS WILL BE SAVED

 END READING OUTPUT CONTROL FOR STRESS PERIOD 358


 PROCESSING STORAGE PERIOD DATA
 END PROCESSING STORAGE PERIOD DATA


 STRESS PERIOD 358 IS TRANSIENT


 REUSING DRNS FROM LAST STRESS PERIOD

 REUSING RIVS FROM LAST STRESS PERIOD

 REUSING RIVS FROM LAST STRESS PERIOD

 REUSING RCHS FROM LAST STRESS PERIOD
 UBDSV06 SAVING              DRN IN MODEL GWF_1            PACKAGE GWF_1           CONNECTED TO MODEL GWF_1            PACKAGE DRN_SYS1         ON UNIT   1018 AT TIME STEP      1, STRESS PERIOD    358
 UBDSV06 SAVING              RIV IN MODEL GWF_1            PACKAGE GWF_1           CONNECTED TO MODEL GWF_1            PACKAGE RIV_SYS1         ON UNIT   1018 AT TIME STEP      1, STRESS PERIOD    358
 UBDSV06 SAVING              RIV IN MODEL GWF_1            PACKAGE GWF_1           CONNECTED TO MODEL GWF_1            PACKAGE RIV_SYS2         ON UNIT   1018 AT TIME STEP      1, STRESS PERIOD    358
 UBDSV06 SAVING              RCH IN MODEL GWF_1            PACKAGE GWF_1           CONNECTED TO MODEL GWF_1            PACKAGE RCH_MSW          ON UNIT   1018 AT TIME STEP      1, STRESS PERIOD    358

 HEAD WILL BE SAVED ON UNIT 1017 AT END OF TIME STEP    1, STRESS PERIOD  358


  VOLUME BUDGET FOR ENTIRE MODEL AT END OF TIME STEP    1, STRESS PERIOD 358
  ---------------------------------------------------------------------------------------------------

     CUMULATIVE VOLUME      L**3       RATES FOR THIS TIME STEP      L**3/T          PACKAGE NAME    
     ------------------                 ------------------------                     ----------------

           IN:                                      IN:
           ---                                      ---
              STO-SS =      235573.7939                STO-SS =         164.2840     STORAGE                          
                 DRN =           0.0000                   DRN =           0.0000     DRN_SYS1                         
                 RIV =      282401.4289                   RIV =         730.5891     RIV_SYS1                         
                 RIV =           0.0000                   RIV =           0.0000     RIV_SYS2                         
                 RCH =      480582.8808                   RCH =        1551.5918     RCH_MSW                          

            TOTAL IN =      998558.1036              TOTAL IN =        2446.4649

          OUT:                                     OUT:
          ----                                     ----
              STO-SS =       50864.5546                STO-SS =           0.0000     STORAGE                          
                 DRN =       18689.9518                   DRN =          50.0844     DRN_SYS1                         
                 RIV =      869558.2402                   RIV =        2254.3168     RIV_SYS1                         
                 RIV =       52956.9262                   RIV =         142.0638     RIV_SYS2                         
                 RCH =        6488.4405                   RCH =           0.0000     RCH_MSW                          

           TOTAL OUT =      998558.1132             TOTAL OUT =        2446.4651

            IN - OUT =      -9.6025E-03              IN - OUT =      -2.2570E-04

 PERCENT DISCREPANCY =          -0.00     PERCENT DISCREPANCY =          -0.00




         TIME SUMMARY AT END OF TIME STEP    1 IN STRESS PERIOD  358
                    SECONDS     MINUTES      HOURS       DAYS        YEARS
                    -----------------------------------------------------------
   TIME STEP LENGTH  86400.      1440.0      24.000      1.0000     2.73785E-03
 STRESS PERIOD TIME  86400.      1440.0      24.000      1.0000     2.73785E-03
         TOTAL TIME 3.09312E+07 5.15520E+05  8592.0      358.00     0.98015    


end timestep


start timestep kper="359" kstp="1" mode="normal"

 #Stressperiod Save Options

 BEGIN READING OUTPUT CONTROL FOR STRESS PERIOD 359
      ALL TIME STEPS WILL BE SAVED
      ALL TIME STEPS WILL BE SAVED

 END READING OUTPUT CONTROL FOR STRESS PERIOD 359


 PROCESSING STORAGE PERIOD DATA
 END PROCESSING STORAGE PERIOD DATA


 STRESS PERIOD 359 IS TRANSIENT


 REUSING DRNS FROM LAST STRESS PERIOD

 REUSING RIVS FROM LAST STRESS PERIOD

 REUSING RIVS FROM LAST STRESS PERIOD

 REUSING RCHS FROM LAST STRESS PERIOD
 UBDSV06 SAVING              DRN IN MODEL GWF_1            PACKAGE GWF_1           CONNECTED TO MODEL GWF_1            PACKAGE DRN_SYS1         ON UNIT   1018 AT TIME STEP      1, STRESS PERIOD    359
 UBDSV06 SAVING              RIV IN MODEL GWF_1            PACKAGE GWF_1           CONNECTED TO MODEL GWF_1            PACKAGE RIV_SYS1         ON UNIT   1018 AT TIME STEP      1, STRESS PERIOD    359
 UBDSV06 SAVING              RIV IN MODEL GWF_1            PACKAGE GWF_1           CONNECTED TO MODEL GWF_1            PACKAGE RIV_SYS2         ON UNIT   1018 AT TIME STEP      1, STRESS PERIOD    359
 UBDSV06 SAVING              RCH IN MODEL GWF_1            PACKAGE GWF_1           CONNECTED TO MODEL GWF_1            PACKAGE RCH_MSW          ON UNIT   1018 AT TIME STEP      1, STRESS PERIOD    359

 HEAD WILL BE SAVED ON UNIT 1017 AT END OF TIME STEP    1, STRESS PERIOD  359


  VOLUME BUDGET FOR ENTIRE MODEL AT END OF TIME STEP    1, STRESS PERIOD 359
  ---------------------------------------------------------------------------------------------------

     CUMULATIVE VOLUME      L**3       RATES FOR THIS TIME STEP      L**3/T          PACKAGE NAME    
     ------------------                 ------------------------                     ----------------

           IN:                                      IN:
           ---                                      ---
              STO-SS =      235750.2713                STO-SS =         176.4775     STORAGE                          
                 DRN =           0.0000                   DRN =           0.0000     DRN_SYS1                         
                 RIV =      283138.3962                   RIV =         736.9673     RIV_SYS1                         
                 RIV =           0.0000                   RIV =           0.0000     RIV_SYS2                         
                 RCH =      482100.2420                   RCH =        1517.3612     RCH_MSW                          

            TOTAL IN =     1000988.9095              TOTAL IN =        2430.8059

          OUT:                                     OUT:
          ----                                     ----
              STO-SS =       50864.5546                STO-SS =           0.0000     STORAGE                          
                 DRN =       18739.7439                   DRN =          49.7921     DRN_SYS1                         
                 RIV =      871797.9779                   RIV =        2239.7377     RIV_SYS1                         
                 RIV =       53098.2020                   RIV =         141.2758     RIV_SYS2                         
                 RCH =        6488.4405                   RCH =           0.0000     RCH_MSW                          

           TOTAL OUT =     1000988.9188             TOTAL OUT =        2430.8056

            IN - OUT =      -9.3182E-03              IN - OUT =       2.8438E-04

 PERCENT DISCREPANCY =          -0.00     PERCENT DISCREPANCY =           0.00




         TIME SUMMARY AT END OF TIME STEP    1 IN STRESS PERIOD  359
                    SECONDS     MINUTES      HOURS       DAYS        YEARS
                    -----------------------------------------------------------
   TIME STEP LENGTH  86400.      1440.0      24.000      1.0000     2.73785E-03
 STRESS PERIOD TIME  86400.      1440.0      24.000      1.0000     2.73785E-03
         TOTAL TIME 3.10176E+07 5.16960E+05  8616.0      359.00     0.98289    


end timestep


start timestep kper="360" kstp="1" mode="normal"

 #Stressperiod Save Options

 BEGIN READING OUTPUT CONTROL FOR STRESS PERIOD 360
      ALL TIME STEPS WILL BE SAVED
      ALL TIME STEPS WILL BE SAVED

 END READING OUTPUT CONTROL FOR STRESS PERIOD 360


 PROCESSING STORAGE PERIOD DATA
 END PROCESSING STORAGE PERIOD DATA


 STRESS PERIOD 360 IS TRANSIENT


 REUSING DRNS FROM LAST STRESS PERIOD

 REUSING RIVS FROM LAST STRESS PERIOD

 REUSING RIVS FROM LAST STRESS PERIOD

 REUSING RCHS FROM LAST STRESS PERIOD
 UBDSV06 SAVING              DRN IN MODEL GWF_1            PACKAGE GWF_1           CONNECTED TO MODEL GWF_1            PACKAGE DRN_SYS1         ON UNIT   1018 AT TIME STEP      1, STRESS PERIOD    360
 UBDSV06 SAVING              RIV IN MODEL GWF_1            PACKAGE GWF_1           CONNECTED TO MODEL GWF_1            PACKAGE RIV_SYS1         ON UNIT   1018 AT TIME STEP      1, STRESS PERIOD    360
 UBDSV06 SAVING              RIV IN MODEL GWF_1            PACKAGE GWF_1           CONNECTED TO MODEL GWF_1            PACKAGE RIV_SYS2         ON UNIT   1018 AT TIME STEP      1, STRESS PERIOD    360
 UBDSV06 SAVING              RCH IN MODEL GWF_1            PACKAGE GWF_1           CONNECTED TO MODEL GWF_1            PACKAGE RCH_MSW          ON UNIT   1018 AT TIME STEP      1, STRESS PERIOD    360

 HEAD WILL BE SAVED ON UNIT 1017 AT END OF TIME STEP    1, STRESS PERIOD  360


  VOLUME BUDGET FOR ENTIRE MODEL AT END OF TIME STEP    1, STRESS PERIOD 360
  ---------------------------------------------------------------------------------------------------

     CUMULATIVE VOLUME      L**3       RATES FOR THIS TIME STEP      L**3/T          PACKAGE NAME    
     ------------------                 ------------------------                     ----------------

           IN:                                      IN:
           ---                                      ---
              STO-SS =      235902.1092                STO-SS =         151.8379     STORAGE                          
                 DRN =           0.0000                   DRN =           0.0000     DRN_SYS1                         
                 RIV =      283879.4497                   RIV =         741.0535     RIV_SYS1                         
                 RIV =           0.0000                   RIV =           0.0000     RIV_SYS2                         
                 RCH =      483627.9940                   RCH =        1527.7520     RCH_MSW                          

            TOTAL IN =     1003409.5529              TOTAL IN =        2420.6434

          OUT:                                     OUT:
          ----                                     ----
              STO-SS =       50864.5546                STO-SS =           0.0000     STORAGE                          
                 DRN =       18789.2657                   DRN =          49.5218     DRN_SYS1                         
                 RIV =      874028.5362                   RIV =        2230.5583     RIV_SYS1                         
                 RIV =       53238.7651                   RIV =         140.5631     RIV_SYS2                         
                 RCH =        6488.4405                   RCH =           0.0000     RCH_MSW                          

           TOTAL OUT =     1003409.5620             TOTAL OUT =        2420.6432

            IN - OUT =      -9.0786E-03              IN - OUT =       2.3953E-04

 PERCENT DISCREPANCY =          -0.00     PERCENT DISCREPANCY =           0.00




         TIME SUMMARY AT END OF TIME STEP    1 IN STRESS PERIOD  360
                    SECONDS     MINUTES      HOURS       DAYS        YEARS
                    -----------------------------------------------------------
   TIME STEP LENGTH  86400.      1440.0      24.000      1.0000     2.73785E-03
 STRESS PERIOD TIME  86400.      1440.0      24.000      1.0000     2.73785E-03
         TOTAL TIME 3.11040E+07 5.18400E+05  8640.0      360.00     0.98563    


end timestep


start timestep kper="361" kstp="1" mode="normal"

 #Stressperiod Save Options

 BEGIN READING OUTPUT CONTROL FOR STRESS PERIOD 361
      ALL TIME STEPS WILL BE SAVED
      ALL TIME STEPS WILL BE SAVED

 END READING OUTPUT CONTROL FOR STRESS PERIOD 361


 PROCESSING STORAGE PERIOD DATA
 END PROCESSING STORAGE PERIOD DATA


 STRESS PERIOD 361 IS TRANSIENT


 REUSING DRNS FROM LAST STRESS PERIOD

 REUSING RIVS FROM LAST STRESS PERIOD

 REUSING RIVS FROM LAST STRESS PERIOD

 REUSING RCHS FROM LAST STRESS PERIOD
 UBDSV06 SAVING              DRN IN MODEL GWF_1            PACKAGE GWF_1           CONNECTED TO MODEL GWF_1            PACKAGE DRN_SYS1         ON UNIT   1018 AT TIME STEP      1, STRESS PERIOD    361
 UBDSV06 SAVING              RIV IN MODEL GWF_1            PACKAGE GWF_1           CONNECTED TO MODEL GWF_1            PACKAGE RIV_SYS1         ON UNIT   1018 AT TIME STEP      1, STRESS PERIOD    361
 UBDSV06 SAVING              RIV IN MODEL GWF_1            PACKAGE GWF_1           CONNECTED TO MODEL GWF_1            PACKAGE RIV_SYS2         ON UNIT   1018 AT TIME STEP      1, STRESS PERIOD    361
 UBDSV06 SAVING              RCH IN MODEL GWF_1            PACKAGE GWF_1           CONNECTED TO MODEL GWF_1            PACKAGE RCH_MSW          ON UNIT   1018 AT TIME STEP      1, STRESS PERIOD    361

 HEAD WILL BE SAVED ON UNIT 1017 AT END OF TIME STEP    1, STRESS PERIOD  361


  VOLUME BUDGET FOR ENTIRE MODEL AT END OF TIME STEP    1, STRESS PERIOD 361
  ---------------------------------------------------------------------------------------------------

     CUMULATIVE VOLUME      L**3       RATES FOR THIS TIME STEP      L**3/T          PACKAGE NAME    
     ------------------                 ------------------------                     ----------------

           IN:                                      IN:
           ---                                      ---
              STO-SS =      235902.1092                STO-SS =           0.0000     STORAGE                          
                 DRN =           0.0000                   DRN =           0.0000     DRN_SYS1                         
                 RIV =      284440.2044                   RIV =         560.7547     RIV_SYS1                         
                 RIV =           0.0000                   RIV =           0.0000     RIV_SYS2                         
                 RCH =      488811.9231                   RCH =        5183.9291     RCH_MSW                          

            TOTAL IN =     1009154.2367              TOTAL IN =        5744.6838

          OUT:                                     OUT:
          ----                                     ----
              STO-SS =       53676.5694                STO-SS =        2812.0148     STORAGE                          
                 DRN =       18843.3775                   DRN =          54.1118     DRN_SYS1                         
                 RIV =      876753.2297                   RIV =        2724.6935     RIV_SYS1                         
                 RIV =       53392.6281                   RIV =         153.8630     RIV_SYS2                         
                 RCH =        6488.4405                   RCH =           0.0000     RCH_MSW                          

           TOTAL OUT =     1009154.2452             TOTAL OUT =        5744.6832

            IN - OUT =      -8.4894E-03              IN - OUT =       5.8928E-04

 PERCENT DISCREPANCY =          -0.00     PERCENT DISCREPANCY =           0.00




         TIME SUMMARY AT END OF TIME STEP    1 IN STRESS PERIOD  361
                    SECONDS     MINUTES      HOURS       DAYS        YEARS
                    -----------------------------------------------------------
   TIME STEP LENGTH  86400.      1440.0      24.000      1.0000     2.73785E-03
 STRESS PERIOD TIME  86400.      1440.0      24.000      1.0000     2.73785E-03
         TOTAL TIME 3.11904E+07 5.19840E+05  8664.0      361.00     0.98836    


end timestep


start timestep kper="362" kstp="1" mode="normal"

 #Stressperiod Save Options

 BEGIN READING OUTPUT CONTROL FOR STRESS PERIOD 362
      ALL TIME STEPS WILL BE SAVED
      ALL TIME STEPS WILL BE SAVED

 END READING OUTPUT CONTROL FOR STRESS PERIOD 362


 PROCESSING STORAGE PERIOD DATA
 END PROCESSING STORAGE PERIOD DATA


 STRESS PERIOD 362 IS TRANSIENT


 REUSING DRNS FROM LAST STRESS PERIOD

 REUSING RIVS FROM LAST STRESS PERIOD

 REUSING RIVS FROM LAST STRESS PERIOD

 REUSING RCHS FROM LAST STRESS PERIOD
 UBDSV06 SAVING              DRN IN MODEL GWF_1            PACKAGE GWF_1           CONNECTED TO MODEL GWF_1            PACKAGE DRN_SYS1         ON UNIT   1018 AT TIME STEP      1, STRESS PERIOD    362
 UBDSV06 SAVING              RIV IN MODEL GWF_1            PACKAGE GWF_1           CONNECTED TO MODEL GWF_1            PACKAGE RIV_SYS1         ON UNIT   1018 AT TIME STEP      1, STRESS PERIOD    362
 UBDSV06 SAVING              RIV IN MODEL GWF_1            PACKAGE GWF_1           CONNECTED TO MODEL GWF_1            PACKAGE RIV_SYS2         ON UNIT   1018 AT TIME STEP      1, STRESS PERIOD    362
 UBDSV06 SAVING              RCH IN MODEL GWF_1            PACKAGE GWF_1           CONNECTED TO MODEL GWF_1            PACKAGE RCH_MSW          ON UNIT   1018 AT TIME STEP      1, STRESS PERIOD    362

 HEAD WILL BE SAVED ON UNIT 1017 AT END OF TIME STEP    1, STRESS PERIOD  362


  VOLUME BUDGET FOR ENTIRE MODEL AT END OF TIME STEP    1, STRESS PERIOD 362
  ---------------------------------------------------------------------------------------------------

     CUMULATIVE VOLUME      L**3       RATES FOR THIS TIME STEP      L**3/T          PACKAGE NAME    
     ------------------                 ------------------------                     ----------------

           IN:                                      IN:
           ---                                      ---
              STO-SS =      235902.1092                STO-SS =           0.0000     STORAGE                          
                 DRN =           0.0000                   DRN =           0.0000     DRN_SYS1                         
                 RIV =      284815.2628                   RIV =         375.0584     RIV_SYS1                         
                 RIV =           0.0000                   RIV =           0.0000     RIV_SYS2                         
                 RCH =      496002.2613                   RCH =        7190.3382     RCH_MSW                          

            TOTAL IN =     1016719.6333              TOTAL IN =        7565.3966

          OUT:                                     OUT:
          ----                                     ----
              STO-SS =       57738.2120                STO-SS =        4061.6426     STORAGE                          
                 DRN =       18905.3126                   DRN =          61.9351     DRN_SYS1                         
                 RIV =      880018.8938                   RIV =        3265.6640     RIV_SYS1                         
                 RIV =       53568.7824                   RIV =         176.1543     RIV_SYS2                         
                 RCH =        6488.4405                   RCH =           0.0000     RCH_MSW                          

           TOTAL OUT =     1016719.6413             TOTAL OUT =        7565.3961

            IN - OUT =      -7.9826E-03              IN - OUT =       5.0679E-04

 PERCENT DISCREPANCY =          -0.00     PERCENT DISCREPANCY =           0.00




         TIME SUMMARY AT END OF TIME STEP    1 IN STRESS PERIOD  362
                    SECONDS     MINUTES      HOURS       DAYS        YEARS
                    -----------------------------------------------------------
   TIME STEP LENGTH  86400.      1440.0      24.000      1.0000     2.73785E-03
 STRESS PERIOD TIME  86400.      1440.0      24.000      1.0000     2.73785E-03
         TOTAL TIME 3.12768E+07 5.21280E+05  8688.0      362.00     0.99110    


end timestep


start timestep kper="363" kstp="1" mode="normal"

 #Stressperiod Save Options

 BEGIN READING OUTPUT CONTROL FOR STRESS PERIOD 363
      ALL TIME STEPS WILL BE SAVED
      ALL TIME STEPS WILL BE SAVED

 END READING OUTPUT CONTROL FOR STRESS PERIOD 363


 PROCESSING STORAGE PERIOD DATA
 END PROCESSING STORAGE PERIOD DATA


 STRESS PERIOD 363 IS TRANSIENT


 REUSING DRNS FROM LAST STRESS PERIOD

 REUSING RIVS FROM LAST STRESS PERIOD

 REUSING RIVS FROM LAST STRESS PERIOD

 REUSING RCHS FROM LAST STRESS PERIOD
 UBDSV06 SAVING              DRN IN MODEL GWF_1            PACKAGE GWF_1           CONNECTED TO MODEL GWF_1            PACKAGE DRN_SYS1         ON UNIT   1018 AT TIME STEP      1, STRESS PERIOD    363
 UBDSV06 SAVING              RIV IN MODEL GWF_1            PACKAGE GWF_1           CONNECTED TO MODEL GWF_1            PACKAGE RIV_SYS1         ON UNIT   1018 AT TIME STEP      1, STRESS PERIOD    363
 UBDSV06 SAVING              RIV IN MODEL GWF_1            PACKAGE GWF_1           CONNECTED TO MODEL GWF_1            PACKAGE RIV_SYS2         ON UNIT   1018 AT TIME STEP      1, STRESS PERIOD    363
 UBDSV06 SAVING              RCH IN MODEL GWF_1            PACKAGE GWF_1           CONNECTED TO MODEL GWF_1            PACKAGE RCH_MSW          ON UNIT   1018 AT TIME STEP      1, STRESS PERIOD    363

 HEAD WILL BE SAVED ON UNIT 1017 AT END OF TIME STEP    1, STRESS PERIOD  363


  VOLUME BUDGET FOR ENTIRE MODEL AT END OF TIME STEP    1, STRESS PERIOD 363
  ---------------------------------------------------------------------------------------------------

     CUMULATIVE VOLUME      L**3       RATES FOR THIS TIME STEP      L**3/T          PACKAGE NAME    
     ------------------                 ------------------------                     ----------------

           IN:                                      IN:
           ---                                      ---
              STO-SS =      235902.1092                STO-SS =           0.0000     STORAGE                          
                 DRN =           0.0000                   DRN =           0.0000     DRN_SYS1                         
                 RIV =      285014.8802                   RIV =         199.6174     RIV_SYS1                         
                 RIV =           0.0000                   RIV =           0.0000     RIV_SYS2                         
                 RCH =      504868.1266                   RCH =        8865.8653     RCH_MSW                          

            TOTAL IN =     1025785.1160              TOTAL IN =        9065.4827

          OUT:                                     OUT:
          ----                                     ----
              STO-SS =       62713.6957                STO-SS =        4975.4837     STORAGE                          
                 DRN =       18977.8441                   DRN =          72.5315     DRN_SYS1                         
                 RIV =      883830.4588                   RIV =        3811.5651     RIV_SYS1                         
                 RIV =       53774.6858                   RIV =         205.9034     RIV_SYS2                         
                 RCH =        6488.4405                   RCH =           0.0000     RCH_MSW                          

           TOTAL OUT =     1025785.1249             TOTAL OUT =        9065.4837

            IN - OUT =      -8.9143E-03              IN - OUT =      -9.3176E-04

 PERCENT DISCREPANCY =          -0.00     PERCENT DISCREPANCY =          -0.00




         TIME SUMMARY AT END OF TIME STEP    1 IN STRESS PERIOD  363
                    SECONDS     MINUTES      HOURS       DAYS        YEARS
                    -----------------------------------------------------------
   TIME STEP LENGTH  86400.      1440.0      24.000      1.0000     2.73785E-03
 STRESS PERIOD TIME  86400.      1440.0      24.000      1.0000     2.73785E-03
         TOTAL TIME 3.13632E+07 5.22720E+05  8712.0      363.00     0.99384    


end timestep


start timestep kper="364" kstp="1" mode="normal"

 #Stressperiod Save Options

 BEGIN READING OUTPUT CONTROL FOR STRESS PERIOD 364
      ALL TIME STEPS WILL BE SAVED
      ALL TIME STEPS WILL BE SAVED

 END READING OUTPUT CONTROL FOR STRESS PERIOD 364


 PROCESSING STORAGE PERIOD DATA
 END PROCESSING STORAGE PERIOD DATA


 STRESS PERIOD 364 IS TRANSIENT


 REUSING DRNS FROM LAST STRESS PERIOD

 REUSING RIVS FROM LAST STRESS PERIOD

 REUSING RIVS FROM LAST STRESS PERIOD

 REUSING RCHS FROM LAST STRESS PERIOD
 UBDSV06 SAVING              DRN IN MODEL GWF_1            PACKAGE GWF_1           CONNECTED TO MODEL GWF_1            PACKAGE DRN_SYS1         ON UNIT   1018 AT TIME STEP      1, STRESS PERIOD    364
 UBDSV06 SAVING              RIV IN MODEL GWF_1            PACKAGE GWF_1           CONNECTED TO MODEL GWF_1            PACKAGE RIV_SYS1         ON UNIT   1018 AT TIME STEP      1, STRESS PERIOD    364
 UBDSV06 SAVING              RIV IN MODEL GWF_1            PACKAGE GWF_1           CONNECTED TO MODEL GWF_1            PACKAGE RIV_SYS2         ON UNIT   1018 AT TIME STEP      1, STRESS PERIOD    364
 UBDSV06 SAVING              RCH IN MODEL GWF_1            PACKAGE GWF_1           CONNECTED TO MODEL GWF_1            PACKAGE RCH_MSW          ON UNIT   1018 AT TIME STEP      1, STRESS PERIOD    364

 HEAD WILL BE SAVED ON UNIT 1017 AT END OF TIME STEP    1, STRESS PERIOD  364


  VOLUME BUDGET FOR ENTIRE MODEL AT END OF TIME STEP    1, STRESS PERIOD 364
  ---------------------------------------------------------------------------------------------------

     CUMULATIVE VOLUME      L**3       RATES FOR THIS TIME STEP      L**3/T          PACKAGE NAME    
     ------------------                 ------------------------                     ----------------

           IN:                                      IN:
           ---                                      ---
              STO-SS =      235902.1092                STO-SS =           0.0000     STORAGE                          
                 DRN =           0.0000                   DRN =           0.0000     DRN_SYS1                         
                 RIV =      285108.1556                   RIV =          93.2753     RIV_SYS1                         
                 RIV =           0.0000                   RIV =           0.0000     RIV_SYS2                         
                 RCH =      514040.9435                   RCH =        9172.8170     RCH_MSW                          

            TOTAL IN =     1035051.2083              TOTAL IN =        9266.0923

          OUT:                                     OUT:
          ----                                     ----
              STO-SS =       67450.3354                STO-SS =        4736.6396     STORAGE                          
                 DRN =       19061.1890                   DRN =          83.3449     DRN_SYS1                         
                 RIV =      888040.8555                   RIV =        4210.3967     RIV_SYS1                         
                 RIV =       54010.3988                   RIV =         235.7130     RIV_SYS2                         
                 RCH =        6488.4405                   RCH =           0.0000     RCH_MSW                          

           TOTAL OUT =     1035051.2192             TOTAL OUT =        9266.0942

            IN - OUT =      -1.0827E-02              IN - OUT =      -1.9122E-03

 PERCENT DISCREPANCY =          -0.00     PERCENT DISCREPANCY =          -0.00




         TIME SUMMARY AT END OF TIME STEP    1 IN STRESS PERIOD  364
                    SECONDS     MINUTES      HOURS       DAYS        YEARS
                    -----------------------------------------------------------
   TIME STEP LENGTH  86400.      1440.0      24.000      1.0000     2.73785E-03
 STRESS PERIOD TIME  86400.      1440.0      24.000      1.0000     2.73785E-03
         TOTAL TIME 3.14496E+07 5.24160E+05  8736.0      364.00     0.99658    


end timestep


start timestep kper="365" kstp="1" mode="normal"

 #Stressperiod Save Options

 BEGIN READING OUTPUT CONTROL FOR STRESS PERIOD 365
      ALL TIME STEPS WILL BE SAVED
      ALL TIME STEPS WILL BE SAVED

 END READING OUTPUT CONTROL FOR STRESS PERIOD 365


 PROCESSING STORAGE PERIOD DATA
 END PROCESSING STORAGE PERIOD DATA


 STRESS PERIOD 365 IS TRANSIENT


 REUSING DRNS FROM LAST STRESS PERIOD

 REUSING RIVS FROM LAST STRESS PERIOD

 REUSING RIVS FROM LAST STRESS PERIOD

 REUSING RCHS FROM LAST STRESS PERIOD
 UBDSV06 SAVING              DRN IN MODEL GWF_1            PACKAGE GWF_1           CONNECTED TO MODEL GWF_1            PACKAGE DRN_SYS1         ON UNIT   1018 AT TIME STEP      1, STRESS PERIOD    365
 UBDSV06 SAVING              RIV IN MODEL GWF_1            PACKAGE GWF_1           CONNECTED TO MODEL GWF_1            PACKAGE RIV_SYS1         ON UNIT   1018 AT TIME STEP      1, STRESS PERIOD    365
 UBDSV06 SAVING              RIV IN MODEL GWF_1            PACKAGE GWF_1           CONNECTED TO MODEL GWF_1            PACKAGE RIV_SYS2         ON UNIT   1018 AT TIME STEP      1, STRESS PERIOD    365
 UBDSV06 SAVING              RCH IN MODEL GWF_1            PACKAGE GWF_1           CONNECTED TO MODEL GWF_1            PACKAGE RCH_MSW          ON UNIT   1018 AT TIME STEP      1, STRESS PERIOD    365

 HEAD WILL BE SAVED ON UNIT 1017 AT END OF TIME STEP    1, STRESS PERIOD  365


  VOLUME BUDGET FOR ENTIRE MODEL AT END OF TIME STEP    1, STRESS PERIOD 365
  ---------------------------------------------------------------------------------------------------

     CUMULATIVE VOLUME      L**3       RATES FOR THIS TIME STEP      L**3/T          PACKAGE NAME    
     ------------------                 ------------------------                     ----------------

           IN:                                      IN:
           ---                                      ---
              STO-SS =      235905.2229                STO-SS =           3.1137     STORAGE                          
                 DRN =           0.0000                   DRN =           0.0000     DRN_SYS1                         
                 RIV =      285176.9045                   RIV =          68.7489     RIV_SYS1                         
                 RIV =           0.0000                   RIV =           0.0000     RIV_SYS2                         
                 RCH =      522280.9362                   RCH =        8239.9926     RCH_MSW                          

            TOTAL IN =     1043363.0636              TOTAL IN =        8311.8552

          OUT:                                     OUT:
          ----                                     ----
              STO-SS =       71013.5452                STO-SS =        3563.2098     STORAGE                          
                 DRN =       19153.1183                   DRN =          91.9293     DRN_SYS1                         
                 RIV =      892438.8295                   RIV =        4397.9740     RIV_SYS1                         
                 RIV =       54269.1429                   RIV =         258.7441     RIV_SYS2                         
                 RCH =        6488.4405                   RCH =           0.0000     RCH_MSW                          

           TOTAL OUT =     1043363.0763             TOTAL OUT =        8311.8572

            IN - OUT =      -1.2748E-02              IN - OUT =      -1.9210E-03

 PERCENT DISCREPANCY =          -0.00     PERCENT DISCREPANCY =          -0.00




         TIME SUMMARY AT END OF TIME STEP    1 IN STRESS PERIOD  365
                    SECONDS     MINUTES      HOURS       DAYS        YEARS
                    -----------------------------------------------------------
   TIME STEP LENGTH  86400.      1440.0      24.000      1.0000     2.73785E-03
 STRESS PERIOD TIME  86400.      1440.0      24.000      1.0000     2.73785E-03
         TOTAL TIME 3.15360E+07 5.25600E+05  8760.0      365.00     0.99932    


end timestep

