                                   MODFLOW 6
                U.S. GEOLOGICAL SURVEY MODULAR HYDROLOGIC MODEL
                          GROUNDWATER FLOW MODEL (GWF)
                   VERSION 6.4.0 release candidate 03/04/2022
                               ***DEVELOP MODE***

   MODFLOW 6 compiled Nov 01 2022 14:01:24 with Intel(R) Fortran Intel(R) 64
   Compiler Classic for applications running on Intel(R) 64, Version 2021.2.0
                             Build 20210228_000000

This software is preliminary or provisional and is subject to 
revision. It is being provided to meet the need for timely best 
science. The software has not received final approval by the U.S. 
Geological Survey (USGS). No warranty, expressed or implied, is made 
by the USGS or the U.S. Government as to the functionality of the 
software and related material nor shall the fact of release 
constitute any such warranty. The software is provided on the 
condition that neither the USGS nor the U.S. Government shall be held 
liable for any damages resulting from the authorized or unauthorized 
use of the software.


As a work of the United States Government, this USGS product is 
in the public domain within the United States. You can copy, 
modify, distribute, and perform the work, even for commercial 
purposes, all without asking permission. Additionally, USGS 
waives copyright and related rights in the work worldwide 
through CC0 1.0 Universal Public Domain Dedication 
(https://creativecommons.org/publicdomain/zero/1.0/).

The following GNU Lesser General Public License (LGPL) libraries
are used in this USGS product:

    SPARSKIT version 2.0
      ilut, luson, and qsplit 
      (https://www-users.cse.umn.edu/~saad/software/SPARSKIT/)

    RCM - Reverse Cuthill McKee Ordering
      (https://people.math.sc.edu/Burkardt/f_src/rcm/rcm.html)

    BLAS - Basic Linear Algebra Subprograms Level 1
      (https://people.math.sc.edu/Burkardt/f_src/blas1_d/blas1_d.html)

    SPARSEKIT - Sparse Matrix Utility Package
      amux, dperm, dvperm, rperm, and cperm
      (https://people.sc.fsu.edu/~jburkardt/f77_src/sparsekit/sparsekit.html)

The following BSD-3 License libraries are used in this USGS product:

    Modern Fortran DAG Library
      Copyright (c) 2018, Jacob Williams
      All rights reserved.
      (https://github.com/jacobwilliams/daglib)

MODFLOW 6 compiler options: /Isrc\libmf6core.a.p /Isrc /I..\src
/Isrc\libmf6_external.a.p /MTd /nologo /warn:general /warn:truncated_source
/stand:f08 /Zi /traceback /O2 /fpe:0 /heap-arrays:0 /traceback /fpp
/Qdiag-disable:7416 /Qdiag-disable:7025 /Qdiag-disable:5268
/Fdsrc\libmf6core.a.p\Utilities_compilerversion.F90.pdb
/module:src\libmf6core.a.p
/Fosrc/libmf6core.a.p/Utilities_compilerversion.F90.obj /c

System command used to initiate simulation:
C:\Users\slooten\.conda\envs\imod_coupler\python.exe c:\Users\slooten\.vscode\extensions\ms-python.python-2023.2.0\pythonFiles\lib\python\debugpy\launcher/../..\debugpy --connect 127.0.0.1:65436 --configure-qt none --adapter-access-token 4120899bfe78b69211c652066459b2d2c1b018cf6d8c4f07ee0bf493f3f5702b c:\Users\slooten\.vscode\extensions\ms-python.python-2023.2.0\pythonFiles\testlauncher.py d:\dev\imod_coupler pytest --rootdir d:\dev\imod_coupler --override-ini junit_family=xunit1 --junit-xml=C:\Users\slooten\AppData\Local\Temp\tmp-34820sPvGnZGmw3GS.xml --capture no ./tests/test_run_tmodel.py::test_run_tmodel

MODFLOW was compiled using uniform precision.

Real Variables
  KIND: 8
  TINY (smallest non-zero value):    2.225074-308
  HUGE (largest value):    1.797693+308
  PRECISION: 15
  BIT SIZE: 64

Integer Variables
  KIND: 4
  HUGE (largest value): 2147483647
  BIT SIZE: 32

Long Integer Variables
  KIND: 8
  HUGE (largest value): 9223372036854775807
  BIT SIZE: 64

Logical Variables
  KIND: 4
  BIT SIZE: 32
 

 OPENED .\GWF_1\MODELINPUT\T-MODEL-D.DIS6
 FILE TYPE:DIS6                   UNIT 1005   STATUS:OLD                 
 FORMAT:FORMATTED              ACCESS:SEQUENTIAL          
 ACTION:READ                


 OPENED .\GWF_1\MODELINPUT\T-MODEL-D.IC6
 FILE TYPE:IC6                    UNIT 1006   STATUS:OLD                 
 FORMAT:FORMATTED              ACCESS:SEQUENTIAL          
 ACTION:READ                


 OPENED .\GWF_1\MODELINPUT\T-MODEL-D.NPF6
 FILE TYPE:NPF6                   UNIT 1007   STATUS:OLD                 
 FORMAT:FORMATTED              ACCESS:SEQUENTIAL          
 ACTION:READ                


 OPENED .\GWF_1\MODELINPUT\T-MODEL-D.OC6
 FILE TYPE:OC6                    UNIT 1008   STATUS:OLD                 
 FORMAT:FORMATTED              ACCESS:SEQUENTIAL          
 ACTION:READ                


 OPENED .\GWF_1\MODELINPUT\T-MODEL-D.STO6
 FILE TYPE:STO6                   UNIT 1009   STATUS:OLD                 
 FORMAT:FORMATTED              ACCESS:SEQUENTIAL          
 ACTION:READ                


 OPENED .\GWF_1\MODELINPUT\T-MODEL-D_SYS1.DRN6
 FILE TYPE:DRN6                   UNIT 1010   STATUS:OLD                 
 FORMAT:FORMATTED              ACCESS:SEQUENTIAL          
 ACTION:READ                


 OPENED .\GWF_1\MODELINPUT\T-MODEL-D_SYS1.RIV6
 FILE TYPE:RIV6                   UNIT 1011   STATUS:OLD                 
 FORMAT:FORMATTED              ACCESS:SEQUENTIAL          
 ACTION:READ                


 OPENED .\GWF_1\MODELINPUT\T-MODEL-D_SYS2.RIV6
 FILE TYPE:RIV6                   UNIT 1012   STATUS:OLD                 
 FORMAT:FORMATTED              ACCESS:SEQUENTIAL          
 ACTION:READ                


 OPENED .\GWF_1\MODELINPUT\MSW.RCH6
 FILE TYPE:RCH6                   UNIT 1013   STATUS:OLD                 
 FORMAT:FORMATTED              ACCESS:SEQUENTIAL          
 ACTION:READ                


 OPENED .\GWF_1\MODELINPUT\RIV_CORRECTION.WEL6
 FILE TYPE:WEL6                   UNIT 1014   STATUS:OLD                 
 FORMAT:FORMATTED              ACCESS:SEQUENTIAL          
 ACTION:READ                


 DIS -- STRUCTURED GRID DISCRETIZATION PACKAGE, VERSION 2 : 3/27/2014 - INPUT READ FROM UNIT 1005

 Loading input for GWF_1/DIS
 # DIS6 File Generated by iMOD [V5_4 X64 Optimized]
   XORIGIN = .000000000000000
   YORIGIN = .000000000000000
   ANGROT = .000000000000000
 #Model Dimensions
   NLAY = 1
   NROW = 11
   NCOL = 10
 #Cell Sizes
   DELR = 100.0000000000000
   DELC = 100.0000000000000
 #Vertical Configuration
   TOP = .000000000000000
   BOTM = -10.00000000000000
 #Boundary Settings
   IDOMAIN = variable 3D integer array ranging from 1 to 2
 Loading input complete...


 NPF -- NODE PROPERTY FLOW PACKAGE, VERSION 1, 3/30/2015 INPUT READ FROM UNIT 1007

 Loading input for GWF_1/NPF
 # NPF6 File Generated by iMOD [V5_4 X64 Optimized]
 #General Options
 #Geology Options
   ICELLTYPE = 0
   K = 100.0000000000000
   K33 = 1.000000000000000
 Loading input complete...

 Setting Discretization Options
    MODEL LENGTH UNIT [0=UND, 1=FEET, 2=METERS, 3=CENTIMETERS] SET AS 2
    XORIGIN = .000000000000000
    YORIGIN = .000000000000000
    ANGROT = .000000000000000
 End Setting Discretization Options

 Setting Discretization Dimensions
    NLAY = 1
    NROW = 11
    NCOL = 10
 End Setting Discretization Dimensions

 Setting Discretization Griddata
    DELR set from input file
    DELC set from input file
    TOP set from input file
    BOTM set from input file
    IDOMAIN set from input file
 End Setting Discretization Griddata

 Setting NPF Options
    ALTERNATIVE CELL AVERAGING [1=LOGARITHMIC, 2=AMT-LMK, 3=AMT-HMK] SET TO: 3
 End Setting NPF Options

 THE FOLLOWING REWET SETTINGS WILL BE USED.
      WETFCT =     1.00000    
      IWETIT = 1
      IHDWET = 0
 K22 not provided.  Setting K22 = K.
 Setting NPF Griddata
    ICELLTYPE set from input file
    K set from input file
    K33 set from input file
 End Setting NPF Griddata


 WEL   -- WEL PACKAGE, VERSION 8, 2/22/2014 INPUT READ FROM UNIT 1014

 PROCESSING WEL OPTIONS
 END OF WEL OPTIONS

 PROCESSING WEL DIMENSIONS
    MAXBOUND =      55
 END OF WEL DIMENSIONS

 DRN   -- DRN PACKAGE, VERSION 8, 2/22/2014 INPUT READ FROM UNIT 1010
 # DRN6 File Generated by iMOD [V5_4 X64 Optimized]
 #General Options

 PROCESSING DRN OPTIONS
    FLOWS WILL BE SAVED TO BUDGET FILE SPECIFIED IN OUTPUT CONTROL
 END OF DRN OPTIONS
 #General Dimensions

 PROCESSING DRN DIMENSIONS
    MAXBOUND =       2
 END OF DRN DIMENSIONS

 RIV   -- RIV PACKAGE, VERSION 8, 2/22/2014 INPUT READ FROM UNIT 1011
 # RIV6 File Generated by iMOD [V5_4 X64 Optimized]
 #General Options

 PROCESSING RIV OPTIONS
    FLOWS WILL BE SAVED TO BUDGET FILE SPECIFIED IN OUTPUT CONTROL
 END OF RIV OPTIONS
 #General Dimensions

 PROCESSING RIV DIMENSIONS
    MAXBOUND =      55
 END OF RIV DIMENSIONS

 RIV   -- RIV PACKAGE, VERSION 8, 2/22/2014 INPUT READ FROM UNIT 1012
 # RIV6 File Generated by iMOD [V5_4 X64 Optimized]
 #General Options

 PROCESSING RIV OPTIONS
    FLOWS WILL BE SAVED TO BUDGET FILE SPECIFIED IN OUTPUT CONTROL
 END OF RIV OPTIONS
 #General Dimensions

 PROCESSING RIV DIMENSIONS
    MAXBOUND =       3
 END OF RIV DIMENSIONS

 RCH   -- RCH PACKAGE, VERSION 8, 2/22/2014 INPUT READ FROM UNIT 1013
 # RCH6 File Generated by iMOD [V5_4 X64 Optimized]
 #General Options

 PROCESSING RCH OPTIONS
 END OF RCH OPTIONS
 #General Dimensions

 PROCESSING RCH DIMENSIONS
    MAXBOUND =     110
 END OF RCH DIMENSIONS

 IC -- INITIAL CONDITIONS PACKAGE, VERSION 8, 3/28/2015 INPUT READ FROM UNIT 1006
 # IC6 File Generated by iMOD [V5_4 X64 Optimized]
 #General Options
 PROCESSING IC OPTIONS
 END OF IC OPTIONS
 #Initial Head Data
 PROCESSING GRIDDATA

     INITIAL HEAD =   10.00000     FOR LAYER 1
 END PROCESSING GRIDDATA

 STO -- STORAGE PACKAGE, VERSION 1, 5/19/2014 INPUT READ FROM UNIT 1009


 # STO6 File Generated by iMOD [V5_4 X64 Optimized]
 #General Options
 PROCESSING STORAGE OPTIONS
    STORAGECOEFFICIENT OPTION:
 Read storage coefficient rather than specific storage
 END OF STORAGE OPTIONS
 #Geology Options
 PROCESSING GRIDDATA

                 ICONVERT = 0 FOR LAYER 1

         SPECIFIC STORAGE =  0.1500000     FOR LAYER 1
 END PROCESSING GRIDDATA
    BINARY GRID INFORMATION WILL BE WRITTEN TO:
      UNIT NUMBER: 1017
      FILE NAME: C:\Users\slooten\AppData\Local\Temp\pytest-of-slooten\pytest-18\test_run_tmodel0\develop\Modflow6\GWF_1\MODELINPUT\T-MODEL-D.DIS6.grb

 OPENED C:\Users\slooten\AppData\Local\Temp\pytest-of-slooten\pytest-18\test_run_tmodel0\develop\Modflow6\GWF_1\MODELINPUT\T-MODEL-D.DIS6.grb
 FILE TYPE:DATA(BINARY)   UNIT 1017   STATUS:REPLACE             
 FORMAT:UNFORMATTED            ACCESS:STREAM              
 ACTION:READWRITE           

      THE LAST TIME STEP WILL BE PRINTED
      THE LAST TIME STEP WILL BE PRINTED
 # OC6 File Generated by iMOD [V5_4 X64 Optimized]
 #General Options

 PROCESSING OC OPTIONS

    HEAD INFORMATION WILL BE WRITTEN TO:
      UNIT NUMBER: 1018
      FILE NAME: .\GWF_1\MODELOUTPUT\HEAD\HEAD.HED

 OPENED .\GWF_1\MODELOUTPUT\HEAD\HEAD.HED
 FILE TYPE:DATA(BINARY)   UNIT 1018   STATUS:REPLACE             
 FORMAT:UNFORMATTED            ACCESS:STREAM              
 ACTION:READWRITE           

    BUDGET INFORMATION WILL BE WRITTEN TO:
      UNIT NUMBER: 1019
      FILE NAME: .\GWF_1\MODELOUTPUT\BUDGET\BUDGET.CBC

 OPENED .\GWF_1\MODELOUTPUT\BUDGET\BUDGET.CBC
 FILE TYPE:DATA(BINARY)   UNIT 1019   STATUS:REPLACE             
 FORMAT:UNFORMATTED            ACCESS:STREAM              
 ACTION:READWRITE           

 END OF OC OPTIONS

start timestep kper="1" kstp="1" mode="normal"

 #Stressperiod Save Options

 BEGIN READING OUTPUT CONTROL FOR STRESS PERIOD 1
      ALL TIME STEPS WILL BE SAVED
      ALL TIME STEPS WILL BE SAVED

 END READING OUTPUT CONTROL FOR STRESS PERIOD 1
 #Time Storage Options


 PROCESSING STORAGE PERIOD DATA
 END PROCESSING STORAGE PERIOD DATA


 STRESS PERIOD 1 IS TRANSIENT


 OPENED .\GWF_1\MODELINPUT\DRN6\SYS1\DRN_T1.ARR
 FILE TYPE:OPEN/CLOSE   UNIT 1022   STATUS:OLD                 
 FORMAT:FORMATTED              ACCESS:SEQUENTIAL          
 ACTION:READ                


 OPENED .\GWF_1\MODELINPUT\ISG6\SYS1\ISG_T1.ARR
 FILE TYPE:OPEN/CLOSE   UNIT 1023   STATUS:OLD                 
 FORMAT:FORMATTED              ACCESS:SEQUENTIAL          
 ACTION:READ                


 OPENED .\GWF_1\MODELINPUT\RIV6\SYS1\RIV_T1.ARR
 FILE TYPE:OPEN/CLOSE   UNIT 1024   STATUS:OLD                 
 FORMAT:FORMATTED              ACCESS:SEQUENTIAL          
 ACTION:READ                

 UBDSV06 SAVING              DRN IN MODEL GWF_1            PACKAGE GWF_1           CONNECTED TO MODEL GWF_1            PACKAGE DRN_SYS1         ON UNIT   1019 AT TIME STEP      1, STRESS PERIOD      1
 UBDSV06 SAVING              RIV IN MODEL GWF_1            PACKAGE GWF_1           CONNECTED TO MODEL GWF_1            PACKAGE RIV_SYS1         ON UNIT   1019 AT TIME STEP      1, STRESS PERIOD      1
 UBDSV06 SAVING              RIV IN MODEL GWF_1            PACKAGE GWF_1           CONNECTED TO MODEL GWF_1            PACKAGE RIV_SYS2         ON UNIT   1019 AT TIME STEP      1, STRESS PERIOD      1

 HEAD WILL BE SAVED ON UNIT 1018 AT END OF TIME STEP    1, STRESS PERIOD    1


  VOLUME BUDGET FOR ENTIRE MODEL AT END OF TIME STEP    1, STRESS PERIOD   1
  ---------------------------------------------------------------------------------------------------

     CUMULATIVE VOLUME      L**3       RATES FOR THIS TIME STEP      L**3/T          PACKAGE NAME    
     ------------------                 ------------------------                     ----------------

           IN:                                      IN:
           ---                                      ---
              STO-SS =        1257.8482                STO-SS =        1257.8482     STORAGE                          
                 WEL =       13282.1772                   WEL =       13282.1772     RIV_CORR                         
                 DRN =           0.0000                   DRN =           0.0000     DRN_SYS1                         
                 RIV =        5375.4175                   RIV =        5375.4175     RIV_SYS1                         
                 RIV =           0.0000                   RIV =           0.0000     RIV_SYS2                         
                 RCH =           0.0000                   RCH =           0.0000     RCH_MSW                          

            TOTAL IN =       19915.4429              TOTAL IN =       19915.4429

          OUT:                                     OUT:
          ----                                     ----
              STO-SS =       16805.0484                STO-SS =       16805.0484     STORAGE                          
                 WEL =           0.0000                   WEL =           0.0000     RIV_CORR                         
                 DRN =         291.2661                   DRN =         291.2661     DRN_SYS1                         
                 RIV =           0.0000                   RIV =           0.0000     RIV_SYS1                         
                 RIV =         848.6651                   RIV =         848.6651     RIV_SYS2                         
                 RCH =        1970.5257                   RCH =        1970.5257     RCH_MSW                          

           TOTAL OUT =       19915.5052             TOTAL OUT =       19915.5052

            IN - OUT =      -6.2290E-02              IN - OUT =      -6.2290E-02

 PERCENT DISCREPANCY =          -0.00     PERCENT DISCREPANCY =          -0.00




         TIME SUMMARY AT END OF TIME STEP    1 IN STRESS PERIOD    1
                    SECONDS     MINUTES      HOURS       DAYS        YEARS
                    -----------------------------------------------------------
   TIME STEP LENGTH  86400.      1440.0      24.000      1.0000     2.73785E-03
 STRESS PERIOD TIME  86400.      1440.0      24.000      1.0000     2.73785E-03
         TOTAL TIME  86400.      1440.0      24.000      1.0000     2.73785E-03


end timestep


start timestep kper="2" kstp="1" mode="normal"

 #Stressperiod Save Options

 BEGIN READING OUTPUT CONTROL FOR STRESS PERIOD 2
      ALL TIME STEPS WILL BE SAVED
      ALL TIME STEPS WILL BE SAVED

 END READING OUTPUT CONTROL FOR STRESS PERIOD 2


 PROCESSING STORAGE PERIOD DATA
 END PROCESSING STORAGE PERIOD DATA


 STRESS PERIOD 2 IS TRANSIENT


 REUSING WELS FROM LAST STRESS PERIOD

 REUSING DRNS FROM LAST STRESS PERIOD

 REUSING RIVS FROM LAST STRESS PERIOD

 REUSING RIVS FROM LAST STRESS PERIOD

 REUSING RCHS FROM LAST STRESS PERIOD
 UBDSV06 SAVING              DRN IN MODEL GWF_1            PACKAGE GWF_1           CONNECTED TO MODEL GWF_1            PACKAGE DRN_SYS1         ON UNIT   1019 AT TIME STEP      1, STRESS PERIOD      2
 UBDSV06 SAVING              RIV IN MODEL GWF_1            PACKAGE GWF_1           CONNECTED TO MODEL GWF_1            PACKAGE RIV_SYS1         ON UNIT   1019 AT TIME STEP      1, STRESS PERIOD      2
 UBDSV06 SAVING              RIV IN MODEL GWF_1            PACKAGE GWF_1           CONNECTED TO MODEL GWF_1            PACKAGE RIV_SYS2         ON UNIT   1019 AT TIME STEP      1, STRESS PERIOD      2

 HEAD WILL BE SAVED ON UNIT 1018 AT END OF TIME STEP    1, STRESS PERIOD    2


  VOLUME BUDGET FOR ENTIRE MODEL AT END OF TIME STEP    1, STRESS PERIOD   2
  ---------------------------------------------------------------------------------------------------

     CUMULATIVE VOLUME      L**3       RATES FOR THIS TIME STEP      L**3/T          PACKAGE NAME    
     ------------------                 ------------------------                     ----------------

           IN:                                      IN:
           ---                                      ---
              STO-SS =       20346.8268                STO-SS =       19088.9785     STORAGE                          
                 WEL =       13282.1772                   WEL =           0.0000     RIV_CORR                         
                 DRN =           0.0000                   DRN =           0.0000     DRN_SYS1                         
                 RIV =        7368.5106                   RIV =        1993.0931     RIV_SYS1                         
                 RIV =           0.0000                   RIV =           0.0000     RIV_SYS2                         
                 RCH =        1897.4900                   RCH =        1897.4900     RCH_MSW                          

            TOTAL IN =       42895.0045              TOTAL IN =       22979.5616

          OUT:                                     OUT:
          ----                                     ----
              STO-SS =       16911.4626                STO-SS =         106.4142     STORAGE                          
                 WEL =       10997.9519                   WEL =       10997.9519     RIV_CORR                         
                 DRN =         578.2974                   DRN =         287.0313     DRN_SYS1                         
                 RIV =        1174.4030                   RIV =        1174.4030     RIV_SYS1                         
                 RIV =        1671.6103                   RIV =         822.9452     RIV_SYS2                         
                 RCH =       11561.3370                   RCH =        9590.8113     RCH_MSW                          

           TOTAL OUT =       42895.0621             TOTAL OUT =       22979.5568

            IN - OUT =      -5.7533E-02              IN - OUT =       4.7573E-03

 PERCENT DISCREPANCY =          -0.00     PERCENT DISCREPANCY =           0.00




         TIME SUMMARY AT END OF TIME STEP    1 IN STRESS PERIOD    2
                    SECONDS     MINUTES      HOURS       DAYS        YEARS
                    -----------------------------------------------------------
   TIME STEP LENGTH  86400.      1440.0      24.000      1.0000     2.73785E-03
 STRESS PERIOD TIME  86400.      1440.0      24.000      1.0000     2.73785E-03
         TOTAL TIME 1.72800E+05  2880.0      48.000      2.0000     5.47570E-03


end timestep


start timestep kper="3" kstp="1" mode="normal"

 #Stressperiod Save Options

 BEGIN READING OUTPUT CONTROL FOR STRESS PERIOD 3
      ALL TIME STEPS WILL BE SAVED
      ALL TIME STEPS WILL BE SAVED

 END READING OUTPUT CONTROL FOR STRESS PERIOD 3


 PROCESSING STORAGE PERIOD DATA
 END PROCESSING STORAGE PERIOD DATA


 STRESS PERIOD 3 IS TRANSIENT


 REUSING WELS FROM LAST STRESS PERIOD

 REUSING DRNS FROM LAST STRESS PERIOD

 REUSING RIVS FROM LAST STRESS PERIOD

 REUSING RIVS FROM LAST STRESS PERIOD

 REUSING RCHS FROM LAST STRESS PERIOD
 UBDSV06 SAVING              DRN IN MODEL GWF_1            PACKAGE GWF_1           CONNECTED TO MODEL GWF_1            PACKAGE DRN_SYS1         ON UNIT   1019 AT TIME STEP      1, STRESS PERIOD      3
 UBDSV06 SAVING              RIV IN MODEL GWF_1            PACKAGE GWF_1           CONNECTED TO MODEL GWF_1            PACKAGE RIV_SYS1         ON UNIT   1019 AT TIME STEP      1, STRESS PERIOD      3
 UBDSV06 SAVING              RIV IN MODEL GWF_1            PACKAGE GWF_1           CONNECTED TO MODEL GWF_1            PACKAGE RIV_SYS2         ON UNIT   1019 AT TIME STEP      1, STRESS PERIOD      3

 HEAD WILL BE SAVED ON UNIT 1018 AT END OF TIME STEP    1, STRESS PERIOD    3


  VOLUME BUDGET FOR ENTIRE MODEL AT END OF TIME STEP    1, STRESS PERIOD   3
  ---------------------------------------------------------------------------------------------------

     CUMULATIVE VOLUME      L**3       RATES FOR THIS TIME STEP      L**3/T          PACKAGE NAME    
     ------------------                 ------------------------                     ----------------

           IN:                                      IN:
           ---                                      ---
              STO-SS =       21559.7119                STO-SS =        1212.8851     STORAGE                          
                 WEL =       15229.4537                   WEL =        1947.2765     RIV_CORR                         
                 DRN =           0.0000                   DRN =           0.0000     DRN_SYS1                         
                 RIV =        7543.3905                   RIV =         174.8799     RIV_SYS1                         
                 RIV =           0.0000                   RIV =           0.0000     RIV_SYS2                         
                 RCH =        5932.4326                   RCH =        4034.9426     RCH_MSW                          

            TOTAL IN =       50264.9886              TOTAL IN =        7369.9841

          OUT:                                     OUT:
          ----                                     ----
              STO-SS =       19377.5261                STO-SS =        2466.0635     STORAGE                          
                 WEL =       12181.9090                   WEL =        1183.9571     RIV_CORR                         
                 DRN =         866.3084                   DRN =         288.0110     DRN_SYS1                         
                 RIV =        3733.6122                   RIV =        2559.2092     RIV_SYS1                         
                 RIV =        2487.2867                   RIV =         815.6764     RIV_SYS2                         
                 RCH =       11618.4099                   RCH =          57.0729     RCH_MSW                          

           TOTAL OUT =       50265.0523             TOTAL OUT =        7369.9902

            IN - OUT =      -6.3632E-02              IN - OUT =      -6.0993E-03

 PERCENT DISCREPANCY =          -0.00     PERCENT DISCREPANCY =          -0.00




         TIME SUMMARY AT END OF TIME STEP    1 IN STRESS PERIOD    3
                    SECONDS     MINUTES      HOURS       DAYS        YEARS
                    -----------------------------------------------------------
   TIME STEP LENGTH  86400.      1440.0      24.000      1.0000     2.73785E-03
 STRESS PERIOD TIME  86400.      1440.0      24.000      1.0000     2.73785E-03
         TOTAL TIME 2.59200E+05  4320.0      72.000      3.0000     8.21355E-03


end timestep


start timestep kper="4" kstp="1" mode="normal"

 #Stressperiod Save Options

 BEGIN READING OUTPUT CONTROL FOR STRESS PERIOD 4
      ALL TIME STEPS WILL BE SAVED
      ALL TIME STEPS WILL BE SAVED

 END READING OUTPUT CONTROL FOR STRESS PERIOD 4


 PROCESSING STORAGE PERIOD DATA
 END PROCESSING STORAGE PERIOD DATA


 STRESS PERIOD 4 IS TRANSIENT


 REUSING WELS FROM LAST STRESS PERIOD

 REUSING DRNS FROM LAST STRESS PERIOD

 REUSING RIVS FROM LAST STRESS PERIOD

 REUSING RIVS FROM LAST STRESS PERIOD

 REUSING RCHS FROM LAST STRESS PERIOD
 UBDSV06 SAVING              DRN IN MODEL GWF_1            PACKAGE GWF_1           CONNECTED TO MODEL GWF_1            PACKAGE DRN_SYS1         ON UNIT   1019 AT TIME STEP      1, STRESS PERIOD      4
 UBDSV06 SAVING              RIV IN MODEL GWF_1            PACKAGE GWF_1           CONNECTED TO MODEL GWF_1            PACKAGE RIV_SYS1         ON UNIT   1019 AT TIME STEP      1, STRESS PERIOD      4
 UBDSV06 SAVING              RIV IN MODEL GWF_1            PACKAGE GWF_1           CONNECTED TO MODEL GWF_1            PACKAGE RIV_SYS2         ON UNIT   1019 AT TIME STEP      1, STRESS PERIOD      4

 HEAD WILL BE SAVED ON UNIT 1018 AT END OF TIME STEP    1, STRESS PERIOD    4


  VOLUME BUDGET FOR ENTIRE MODEL AT END OF TIME STEP    1, STRESS PERIOD   4
  ---------------------------------------------------------------------------------------------------

     CUMULATIVE VOLUME      L**3       RATES FOR THIS TIME STEP      L**3/T          PACKAGE NAME    
     ------------------                 ------------------------                     ----------------

           IN:                                      IN:
           ---                                      ---
              STO-SS =       24285.3126                STO-SS =        2725.6007     STORAGE                          
                 WEL =       15403.8845                   WEL =         174.4309     RIV_CORR                         
                 DRN =           0.0000                   DRN =           0.0000     DRN_SYS1                         
                 RIV =        8045.1489                   RIV =         501.7584     RIV_SYS1                         
                 RIV =           0.0000                   RIV =           0.0000     RIV_SYS2                         
                 RCH =        8372.5542                   RCH =        2440.1216     RCH_MSW                          

            TOTAL IN =       56106.9002              TOTAL IN =        5841.9116

          OUT:                                     OUT:
          ----                                     ----
              STO-SS =       19493.9618                STO-SS =         116.4356     STORAGE                          
                 WEL =       14746.7750                   WEL =        2564.8660     RIV_CORR                         
                 DRN =        1154.7248                   DRN =         288.4164     DRN_SYS1                         
                 RIV =        5073.4827                   RIV =        1339.8705     RIV_SYS1                         
                 RIV =        3297.2861                   RIV =         809.9994     RIV_SYS2                         
                 RCH =       12340.7276                   RCH =         722.3177     RCH_MSW                          

           TOTAL OUT =       56106.9580             TOTAL OUT =        5841.9057

            IN - OUT =      -5.7773E-02              IN - OUT =       5.8588E-03

 PERCENT DISCREPANCY =          -0.00     PERCENT DISCREPANCY =           0.00




         TIME SUMMARY AT END OF TIME STEP    1 IN STRESS PERIOD    4
                    SECONDS     MINUTES      HOURS       DAYS        YEARS
                    -----------------------------------------------------------
   TIME STEP LENGTH  86400.      1440.0      24.000      1.0000     2.73785E-03
 STRESS PERIOD TIME  86400.      1440.0      24.000      1.0000     2.73785E-03
         TOTAL TIME 3.45600E+05  5760.0      96.000      4.0000     1.09514E-02


end timestep


start timestep kper="5" kstp="1" mode="normal"

 #Stressperiod Save Options

 BEGIN READING OUTPUT CONTROL FOR STRESS PERIOD 5
      ALL TIME STEPS WILL BE SAVED
      ALL TIME STEPS WILL BE SAVED

 END READING OUTPUT CONTROL FOR STRESS PERIOD 5


 PROCESSING STORAGE PERIOD DATA
 END PROCESSING STORAGE PERIOD DATA


 STRESS PERIOD 5 IS TRANSIENT


 REUSING WELS FROM LAST STRESS PERIOD

 REUSING DRNS FROM LAST STRESS PERIOD

 REUSING RIVS FROM LAST STRESS PERIOD

 REUSING RIVS FROM LAST STRESS PERIOD

 REUSING RCHS FROM LAST STRESS PERIOD
 UBDSV06 SAVING              DRN IN MODEL GWF_1            PACKAGE GWF_1           CONNECTED TO MODEL GWF_1            PACKAGE DRN_SYS1         ON UNIT   1019 AT TIME STEP      1, STRESS PERIOD      5
 UBDSV06 SAVING              RIV IN MODEL GWF_1            PACKAGE GWF_1           CONNECTED TO MODEL GWF_1            PACKAGE RIV_SYS1         ON UNIT   1019 AT TIME STEP      1, STRESS PERIOD      5
 UBDSV06 SAVING              RIV IN MODEL GWF_1            PACKAGE GWF_1           CONNECTED TO MODEL GWF_1            PACKAGE RIV_SYS2         ON UNIT   1019 AT TIME STEP      1, STRESS PERIOD      5

 HEAD WILL BE SAVED ON UNIT 1018 AT END OF TIME STEP    1, STRESS PERIOD    5


  VOLUME BUDGET FOR ENTIRE MODEL AT END OF TIME STEP    1, STRESS PERIOD   5
  ---------------------------------------------------------------------------------------------------

     CUMULATIVE VOLUME      L**3       RATES FOR THIS TIME STEP      L**3/T          PACKAGE NAME    
     ------------------                 ------------------------                     ----------------

           IN:                                      IN:
           ---                                      ---
              STO-SS =       24452.2685                STO-SS =         166.9559     STORAGE                          
                 WEL =       15905.2915                   WEL =         501.4069     RIV_CORR                         
                 DRN =           0.0000                   DRN =           0.0000     DRN_SYS1                         
                 RIV =        8263.6708                   RIV =         218.5219     RIV_SYS1                         
                 RIV =           0.0000                   RIV =           0.0000     RIV_SYS2                         
                 RCH =       13915.9181                   RCH =        5543.3640     RCH_MSW                          

            TOTAL IN =       62537.1489              TOTAL IN =        6430.2487

          OUT:                                     OUT:
          ----                                     ----
              STO-SS =       21241.4439                STO-SS =        1747.4822     STORAGE                          
                 WEL =       16087.0331                   WEL =        1340.2580     RIV_CORR                         
                 DRN =        1446.9629                   DRN =         292.2381     DRN_SYS1                         
                 RIV =        7308.9642                   RIV =        2235.4815     RIV_SYS1                         
                 RIV =        4112.0817                   RIV =         814.7956     RIV_SYS2                         
                 RCH =       12340.7276                   RCH =           0.0000     RCH_MSW                          

           TOTAL OUT =       62537.2134             TOTAL OUT =        6430.2554

            IN - OUT =      -6.4500E-02              IN - OUT =      -6.7265E-03

 PERCENT DISCREPANCY =          -0.00     PERCENT DISCREPANCY =          -0.00




         TIME SUMMARY AT END OF TIME STEP    1 IN STRESS PERIOD    5
                    SECONDS     MINUTES      HOURS       DAYS        YEARS
                    -----------------------------------------------------------
   TIME STEP LENGTH  86400.      1440.0      24.000      1.0000     2.73785E-03
 STRESS PERIOD TIME  86400.      1440.0      24.000      1.0000     2.73785E-03
         TOTAL TIME 4.32000E+05  7200.0      120.00      5.0000     1.36893E-02


end timestep


start timestep kper="6" kstp="1" mode="normal"

 #Stressperiod Save Options

 BEGIN READING OUTPUT CONTROL FOR STRESS PERIOD 6
      ALL TIME STEPS WILL BE SAVED
      ALL TIME STEPS WILL BE SAVED

 END READING OUTPUT CONTROL FOR STRESS PERIOD 6


 PROCESSING STORAGE PERIOD DATA
 END PROCESSING STORAGE PERIOD DATA


 STRESS PERIOD 6 IS TRANSIENT


 REUSING WELS FROM LAST STRESS PERIOD

 REUSING DRNS FROM LAST STRESS PERIOD

 REUSING RIVS FROM LAST STRESS PERIOD

 REUSING RIVS FROM LAST STRESS PERIOD

 REUSING RCHS FROM LAST STRESS PERIOD
 UBDSV06 SAVING              DRN IN MODEL GWF_1            PACKAGE GWF_1           CONNECTED TO MODEL GWF_1            PACKAGE DRN_SYS1         ON UNIT   1019 AT TIME STEP      1, STRESS PERIOD      6
 UBDSV06 SAVING              RIV IN MODEL GWF_1            PACKAGE GWF_1           CONNECTED TO MODEL GWF_1            PACKAGE RIV_SYS1         ON UNIT   1019 AT TIME STEP      1, STRESS PERIOD      6
 UBDSV06 SAVING              RIV IN MODEL GWF_1            PACKAGE GWF_1           CONNECTED TO MODEL GWF_1            PACKAGE RIV_SYS2         ON UNIT   1019 AT TIME STEP      1, STRESS PERIOD      6

 HEAD WILL BE SAVED ON UNIT 1018 AT END OF TIME STEP    1, STRESS PERIOD    6


  VOLUME BUDGET FOR ENTIRE MODEL AT END OF TIME STEP    1, STRESS PERIOD   6
  ---------------------------------------------------------------------------------------------------

     CUMULATIVE VOLUME      L**3       RATES FOR THIS TIME STEP      L**3/T          PACKAGE NAME    
     ------------------                 ------------------------                     ----------------

           IN:                                      IN:
           ---                                      ---
              STO-SS =       25204.9917                STO-SS =         752.7232     STORAGE                          
                 WEL =       16123.8067                   WEL =         218.5152     RIV_CORR                         
                 DRN =           0.0000                   DRN =           0.0000     DRN_SYS1                         
                 RIV =        8582.9377                   RIV =         319.2669     RIV_SYS1                         
                 RIV =           0.0000                   RIV =           0.0000     RIV_SYS2                         
                 RCH =       18422.0782                   RCH =        4506.1601     RCH_MSW                          

            TOTAL IN =       68333.8143              TOTAL IN =        5796.6654

          OUT:                                     OUT:
          ----                                     ----
              STO-SS =       21917.8456                STO-SS =         676.4017     STORAGE                          
                 WEL =       18322.5981                   WEL =        2235.5651     RIV_CORR                         
                 DRN =        1741.7916                   DRN =         294.8287     DRN_SYS1                         
                 RIV =        8886.7857                   RIV =        1577.8215     RIV_SYS1                         
                 RIV =        4930.1564                   RIV =         818.0746     RIV_SYS2                         
                 RCH =       12534.6975                   RCH =         193.9699     RCH_MSW                          

           TOTAL OUT =       68333.8749             TOTAL OUT =        5796.6615

            IN - OUT =      -6.0643E-02              IN - OUT =       3.8566E-03

 PERCENT DISCREPANCY =          -0.00     PERCENT DISCREPANCY =           0.00




         TIME SUMMARY AT END OF TIME STEP    1 IN STRESS PERIOD    6
                    SECONDS     MINUTES      HOURS       DAYS        YEARS
                    -----------------------------------------------------------
   TIME STEP LENGTH  86400.      1440.0      24.000      1.0000     2.73785E-03
 STRESS PERIOD TIME  86400.      1440.0      24.000      1.0000     2.73785E-03
         TOTAL TIME 5.18400E+05  8640.0      144.00      6.0000     1.64271E-02


end timestep


start timestep kper="7" kstp="1" mode="normal"

 #Stressperiod Save Options

 BEGIN READING OUTPUT CONTROL FOR STRESS PERIOD 7
      ALL TIME STEPS WILL BE SAVED
      ALL TIME STEPS WILL BE SAVED

 END READING OUTPUT CONTROL FOR STRESS PERIOD 7


 PROCESSING STORAGE PERIOD DATA
 END PROCESSING STORAGE PERIOD DATA


 STRESS PERIOD 7 IS TRANSIENT


 REUSING WELS FROM LAST STRESS PERIOD

 REUSING DRNS FROM LAST STRESS PERIOD

 REUSING RIVS FROM LAST STRESS PERIOD

 REUSING RIVS FROM LAST STRESS PERIOD

 REUSING RCHS FROM LAST STRESS PERIOD
 UBDSV06 SAVING              DRN IN MODEL GWF_1            PACKAGE GWF_1           CONNECTED TO MODEL GWF_1            PACKAGE DRN_SYS1         ON UNIT   1019 AT TIME STEP      1, STRESS PERIOD      7
 UBDSV06 SAVING              RIV IN MODEL GWF_1            PACKAGE GWF_1           CONNECTED TO MODEL GWF_1            PACKAGE RIV_SYS1         ON UNIT   1019 AT TIME STEP      1, STRESS PERIOD      7
 UBDSV06 SAVING              RIV IN MODEL GWF_1            PACKAGE GWF_1           CONNECTED TO MODEL GWF_1            PACKAGE RIV_SYS2         ON UNIT   1019 AT TIME STEP      1, STRESS PERIOD      7

 HEAD WILL BE SAVED ON UNIT 1018 AT END OF TIME STEP    1, STRESS PERIOD    7


  VOLUME BUDGET FOR ENTIRE MODEL AT END OF TIME STEP    1, STRESS PERIOD   7
  ---------------------------------------------------------------------------------------------------

     CUMULATIVE VOLUME      L**3       RATES FOR THIS TIME STEP      L**3/T          PACKAGE NAME    
     ------------------                 ------------------------                     ----------------

           IN:                                      IN:
           ---                                      ---
              STO-SS =       26471.2663                STO-SS =        1266.2746     STORAGE                          
                 WEL =       16443.0711                   WEL =         319.2644     RIV_CORR                         
                 DRN =           0.0000                   DRN =           0.0000     DRN_SYS1                         
                 RIV =        8925.0586                   RIV =         342.1209     RIV_SYS1                         
                 RIV =           0.0000                   RIV =           0.0000     RIV_SYS2                         
                 RCH =       20871.8473                   RCH =        2449.7691     RCH_MSW                          

            TOTAL IN =       72711.2432              TOTAL IN =        4377.4289

          OUT:                                     OUT:
          ----                                     ----
              STO-SS =       22141.7126                STO-SS =         223.8670     STORAGE                          
                 WEL =       19900.4281                   WEL =        1577.8299     RIV_CORR                         
                 DRN =        2035.2674                   DRN =         293.4758     DRN_SYS1                         
                 RIV =       10354.9369                   RIV =        1468.1513     RIV_SYS1                         
                 RIV =        5742.1906                   RIV =         812.0342     RIV_SYS2                         
                 RCH =       12536.7831                   RCH =           2.0856     RCH_MSW                          

           TOTAL OUT =       72711.3186             TOTAL OUT =        4377.4437

            IN - OUT =      -7.5430E-02              IN - OUT =      -1.4786E-02

 PERCENT DISCREPANCY =          -0.00     PERCENT DISCREPANCY =          -0.00




         TIME SUMMARY AT END OF TIME STEP    1 IN STRESS PERIOD    7
                    SECONDS     MINUTES      HOURS       DAYS        YEARS
                    -----------------------------------------------------------
   TIME STEP LENGTH  86400.      1440.0      24.000      1.0000     2.73785E-03
 STRESS PERIOD TIME  86400.      1440.0      24.000      1.0000     2.73785E-03
         TOTAL TIME 6.04800E+05  10080.      168.00      7.0000     1.91650E-02


end timestep


start timestep kper="8" kstp="1" mode="normal"

 #Stressperiod Save Options

 BEGIN READING OUTPUT CONTROL FOR STRESS PERIOD 8
      ALL TIME STEPS WILL BE SAVED
      ALL TIME STEPS WILL BE SAVED

 END READING OUTPUT CONTROL FOR STRESS PERIOD 8


 PROCESSING STORAGE PERIOD DATA
 END PROCESSING STORAGE PERIOD DATA


 STRESS PERIOD 8 IS TRANSIENT


 REUSING WELS FROM LAST STRESS PERIOD

 REUSING DRNS FROM LAST STRESS PERIOD

 REUSING RIVS FROM LAST STRESS PERIOD

 REUSING RIVS FROM LAST STRESS PERIOD

 REUSING RCHS FROM LAST STRESS PERIOD
 UBDSV06 SAVING              DRN IN MODEL GWF_1            PACKAGE GWF_1           CONNECTED TO MODEL GWF_1            PACKAGE DRN_SYS1         ON UNIT   1019 AT TIME STEP      1, STRESS PERIOD      8
 UBDSV06 SAVING              RIV IN MODEL GWF_1            PACKAGE GWF_1           CONNECTED TO MODEL GWF_1            PACKAGE RIV_SYS1         ON UNIT   1019 AT TIME STEP      1, STRESS PERIOD      8
 UBDSV06 SAVING              RIV IN MODEL GWF_1            PACKAGE GWF_1           CONNECTED TO MODEL GWF_1            PACKAGE RIV_SYS2         ON UNIT   1019 AT TIME STEP      1, STRESS PERIOD      8

 HEAD WILL BE SAVED ON UNIT 1018 AT END OF TIME STEP    1, STRESS PERIOD    8


  VOLUME BUDGET FOR ENTIRE MODEL AT END OF TIME STEP    1, STRESS PERIOD   8
  ---------------------------------------------------------------------------------------------------

     CUMULATIVE VOLUME      L**3       RATES FOR THIS TIME STEP      L**3/T          PACKAGE NAME    
     ------------------                 ------------------------                     ----------------

           IN:                                      IN:
           ---                                      ---
              STO-SS =       27933.6404                STO-SS =        1462.3741     STORAGE                          
                 WEL =       16785.1917                   WEL =         342.1206     RIV_CORR                         
                 DRN =           0.0000                   DRN =           0.0000     DRN_SYS1                         
                 RIV =        9310.5973                   RIV =         385.5387     RIV_SYS1                         
                 RIV =           0.0000                   RIV =           0.0000     RIV_SYS2                         
                 RCH =       22566.9929                   RCH =        1695.1456     RCH_MSW                          

            TOTAL IN =       76596.4222              TOTAL IN =        3885.1790

          OUT:                                     OUT:
          ----                                     ----
              STO-SS =       22187.6415                STO-SS =          45.9289     STORAGE                          
                 WEL =       21368.5804                   WEL =        1468.1524     RIV_CORR                         
                 DRN =        2326.0311                   DRN =         290.7638     DRN_SYS1                         
                 RIV =       11625.3901                   RIV =        1270.4532     RIV_SYS1                         
                 RIV =        6544.6991                   RIV =         802.5085     RIV_SYS2                         
                 RCH =       12544.1643                   RCH =           7.3812     RCH_MSW                          

           TOTAL OUT =       76596.5066             TOTAL OUT =        3885.1879

            IN - OUT =      -8.4306E-02              IN - OUT =      -8.8759E-03

 PERCENT DISCREPANCY =          -0.00     PERCENT DISCREPANCY =          -0.00




         TIME SUMMARY AT END OF TIME STEP    1 IN STRESS PERIOD    8
                    SECONDS     MINUTES      HOURS       DAYS        YEARS
                    -----------------------------------------------------------
   TIME STEP LENGTH  86400.      1440.0      24.000      1.0000     2.73785E-03
 STRESS PERIOD TIME  86400.      1440.0      24.000      1.0000     2.73785E-03
         TOTAL TIME 6.91200E+05  11520.      192.00      8.0000     2.19028E-02


end timestep


start timestep kper="9" kstp="1" mode="normal"

 #Stressperiod Save Options

 BEGIN READING OUTPUT CONTROL FOR STRESS PERIOD 9
      ALL TIME STEPS WILL BE SAVED
      ALL TIME STEPS WILL BE SAVED

 END READING OUTPUT CONTROL FOR STRESS PERIOD 9


 PROCESSING STORAGE PERIOD DATA
 END PROCESSING STORAGE PERIOD DATA


 STRESS PERIOD 9 IS TRANSIENT


 REUSING WELS FROM LAST STRESS PERIOD

 REUSING DRNS FROM LAST STRESS PERIOD

 REUSING RIVS FROM LAST STRESS PERIOD

 REUSING RIVS FROM LAST STRESS PERIOD

 REUSING RCHS FROM LAST STRESS PERIOD
 UBDSV06 SAVING              DRN IN MODEL GWF_1            PACKAGE GWF_1           CONNECTED TO MODEL GWF_1            PACKAGE DRN_SYS1         ON UNIT   1019 AT TIME STEP      1, STRESS PERIOD      9
 UBDSV06 SAVING              RIV IN MODEL GWF_1            PACKAGE GWF_1           CONNECTED TO MODEL GWF_1            PACKAGE RIV_SYS1         ON UNIT   1019 AT TIME STEP      1, STRESS PERIOD      9
 UBDSV06 SAVING              RIV IN MODEL GWF_1            PACKAGE GWF_1           CONNECTED TO MODEL GWF_1            PACKAGE RIV_SYS2         ON UNIT   1019 AT TIME STEP      1, STRESS PERIOD      9

 HEAD WILL BE SAVED ON UNIT 1018 AT END OF TIME STEP    1, STRESS PERIOD    9


  VOLUME BUDGET FOR ENTIRE MODEL AT END OF TIME STEP    1, STRESS PERIOD   9
  ---------------------------------------------------------------------------------------------------

     CUMULATIVE VOLUME      L**3       RATES FOR THIS TIME STEP      L**3/T          PACKAGE NAME    
     ------------------                 ------------------------                     ----------------

           IN:                                      IN:
           ---                                      ---
              STO-SS =       29511.7574                STO-SS =        1578.1170     STORAGE                          
                 WEL =       17170.7303                   WEL =         385.5387     RIV_CORR                         
                 DRN =           0.0000                   DRN =           0.0000     DRN_SYS1                         
                 RIV =        9731.5298                   RIV =         420.9325     RIV_SYS1                         
                 RIV =           0.0000                   RIV =           0.0000     RIV_SYS2                         
                 RCH =       23774.2571                   RCH =        1207.2642     RCH_MSW                          

            TOTAL IN =       80188.2746              TOTAL IN =        3591.8524

          OUT:                                     OUT:
          ----                                     ----
              STO-SS =       22189.9304                STO-SS =           2.2889     STORAGE                          
                 WEL =       22639.0337                   WEL =        1270.4533     RIV_CORR                         
                 DRN =        2613.6520                   DRN =         287.6209     DRN_SYS1                         
                 RIV =       12821.9035                   RIV =        1196.5134     RIV_SYS1                         
                 RIV =        7336.6408                   RIV =         791.9417     RIV_SYS2                         
                 RCH =       12587.2617                   RCH =          43.0974     RCH_MSW                          

           TOTAL OUT =       80188.4221             TOTAL OUT =        3591.9155

            IN - OUT =          -0.1475              IN - OUT =      -6.3174E-02

 PERCENT DISCREPANCY =          -0.00     PERCENT DISCREPANCY =          -0.00




         TIME SUMMARY AT END OF TIME STEP    1 IN STRESS PERIOD    9
                    SECONDS     MINUTES      HOURS       DAYS        YEARS
                    -----------------------------------------------------------
   TIME STEP LENGTH  86400.      1440.0      24.000      1.0000     2.73785E-03
 STRESS PERIOD TIME  86400.      1440.0      24.000      1.0000     2.73785E-03
         TOTAL TIME 7.77600E+05  12960.      216.00      9.0000     2.46407E-02


end timestep


start timestep kper="10" kstp="1" mode="normal"

 #Stressperiod Save Options

 BEGIN READING OUTPUT CONTROL FOR STRESS PERIOD 10
      ALL TIME STEPS WILL BE SAVED
      ALL TIME STEPS WILL BE SAVED

 END READING OUTPUT CONTROL FOR STRESS PERIOD 10


 PROCESSING STORAGE PERIOD DATA
 END PROCESSING STORAGE PERIOD DATA


 STRESS PERIOD 10 IS TRANSIENT


 REUSING WELS FROM LAST STRESS PERIOD

 REUSING DRNS FROM LAST STRESS PERIOD

 REUSING RIVS FROM LAST STRESS PERIOD

 REUSING RIVS FROM LAST STRESS PERIOD

 REUSING RCHS FROM LAST STRESS PERIOD
 UBDSV06 SAVING              DRN IN MODEL GWF_1            PACKAGE GWF_1           CONNECTED TO MODEL GWF_1            PACKAGE DRN_SYS1         ON UNIT   1019 AT TIME STEP      1, STRESS PERIOD     10
 UBDSV06 SAVING              RIV IN MODEL GWF_1            PACKAGE GWF_1           CONNECTED TO MODEL GWF_1            PACKAGE RIV_SYS1         ON UNIT   1019 AT TIME STEP      1, STRESS PERIOD     10
 UBDSV06 SAVING              RIV IN MODEL GWF_1            PACKAGE GWF_1           CONNECTED TO MODEL GWF_1            PACKAGE RIV_SYS2         ON UNIT   1019 AT TIME STEP      1, STRESS PERIOD     10

 HEAD WILL BE SAVED ON UNIT 1018 AT END OF TIME STEP    1, STRESS PERIOD   10


  VOLUME BUDGET FOR ENTIRE MODEL AT END OF TIME STEP    1, STRESS PERIOD  10
  ---------------------------------------------------------------------------------------------------

     CUMULATIVE VOLUME      L**3       RATES FOR THIS TIME STEP      L**3/T          PACKAGE NAME    
     ------------------                 ------------------------                     ----------------

           IN:                                      IN:
           ---                                      ---
              STO-SS =       31114.2644                STO-SS =        1602.5071     STORAGE                          
                 WEL =       17591.6629                   WEL =         420.9325     RIV_CORR                         
                 DRN =           0.0000                   DRN =           0.0000     DRN_SYS1                         
                 RIV =       10180.7786                   RIV =         449.2488     RIV_SYS1                         
                 RIV =           0.0000                   RIV =           0.0000     RIV_SYS2                         
                 RCH =       24705.4166                   RCH =         931.1595     RCH_MSW                          

            TOTAL IN =       83592.1225              TOTAL IN =        3403.8479

          OUT:                                     OUT:
          ----                                     ----
              STO-SS =       22189.9304                STO-SS =           0.0000     STORAGE                          
                 WEL =       23835.5472                   WEL =        1196.5134     RIV_CORR                         
                 DRN =        2898.1414                   DRN =         284.4893     DRN_SYS1                         
                 RIV =       13937.5300                   RIV =        1115.6265     RIV_SYS1                         
                 RIV =        8118.2428                   RIV =         781.6020     RIV_SYS2                         
                 RCH =       12612.8835                   RCH =          25.6218     RCH_MSW                          

           TOTAL OUT =       83592.2752             TOTAL OUT =        3403.8531

            IN - OUT =          -0.1527              IN - OUT =      -5.2313E-03

 PERCENT DISCREPANCY =          -0.00     PERCENT DISCREPANCY =          -0.00




         TIME SUMMARY AT END OF TIME STEP    1 IN STRESS PERIOD   10
                    SECONDS     MINUTES      HOURS       DAYS        YEARS
                    -----------------------------------------------------------
   TIME STEP LENGTH  86400.      1440.0      24.000      1.0000     2.73785E-03
 STRESS PERIOD TIME  86400.      1440.0      24.000      1.0000     2.73785E-03
         TOTAL TIME 8.64000E+05  14400.      240.00      10.000     2.73785E-02


end timestep


start timestep kper="11" kstp="1" mode="normal"

 #Stressperiod Save Options

 BEGIN READING OUTPUT CONTROL FOR STRESS PERIOD 11
      ALL TIME STEPS WILL BE SAVED
      ALL TIME STEPS WILL BE SAVED

 END READING OUTPUT CONTROL FOR STRESS PERIOD 11


 PROCESSING STORAGE PERIOD DATA
 END PROCESSING STORAGE PERIOD DATA


 STRESS PERIOD 11 IS TRANSIENT


 REUSING WELS FROM LAST STRESS PERIOD

 REUSING DRNS FROM LAST STRESS PERIOD

 REUSING RIVS FROM LAST STRESS PERIOD

 REUSING RIVS FROM LAST STRESS PERIOD

 REUSING RCHS FROM LAST STRESS PERIOD
 UBDSV06 SAVING              DRN IN MODEL GWF_1            PACKAGE GWF_1           CONNECTED TO MODEL GWF_1            PACKAGE DRN_SYS1         ON UNIT   1019 AT TIME STEP      1, STRESS PERIOD     11
 UBDSV06 SAVING              RIV IN MODEL GWF_1            PACKAGE GWF_1           CONNECTED TO MODEL GWF_1            PACKAGE RIV_SYS1         ON UNIT   1019 AT TIME STEP      1, STRESS PERIOD     11
 UBDSV06 SAVING              RIV IN MODEL GWF_1            PACKAGE GWF_1           CONNECTED TO MODEL GWF_1            PACKAGE RIV_SYS2         ON UNIT   1019 AT TIME STEP      1, STRESS PERIOD     11

 HEAD WILL BE SAVED ON UNIT 1018 AT END OF TIME STEP    1, STRESS PERIOD   11


  VOLUME BUDGET FOR ENTIRE MODEL AT END OF TIME STEP    1, STRESS PERIOD  11
  ---------------------------------------------------------------------------------------------------

     CUMULATIVE VOLUME      L**3       RATES FOR THIS TIME STEP      L**3/T          PACKAGE NAME    
     ------------------                 ------------------------                     ----------------

           IN:                                      IN:
           ---                                      ---
              STO-SS =       32457.7914                STO-SS =        1343.5270     STORAGE                          
                 WEL =       18040.9117                   WEL =         449.2488     RIV_CORR                         
                 DRN =           0.0000                   DRN =           0.0000     DRN_SYS1                         
                 RIV =       10613.5986                   RIV =         432.8200     RIV_SYS1                         
                 RIV =           0.0000                   RIV =           0.0000     RIV_SYS2                         
                 RCH =       25809.4140                   RCH =        1103.9975     RCH_MSW                          

            TOTAL IN =       86921.7157              TOTAL IN =        3329.5932

          OUT:                                     OUT:
          ----                                     ----
              STO-SS =       22213.5706                STO-SS =          23.6402     STORAGE                          
                 WEL =       24951.1737                   WEL =        1115.6265     RIV_CORR                         
                 DRN =        3179.9623                   DRN =         281.8209     DRN_SYS1                         
                 RIV =       15073.5121                   RIV =        1135.9821     RIV_SYS1                         
                 RIV =        8890.8297                   RIV =         772.5869     RIV_SYS2                         
                 RCH =       12612.8835                   RCH =           0.0000     RCH_MSW                          

           TOTAL OUT =       86921.9318             TOTAL OUT =        3329.6566

            IN - OUT =          -0.2161              IN - OUT =      -6.3365E-02

 PERCENT DISCREPANCY =          -0.00     PERCENT DISCREPANCY =          -0.00




         TIME SUMMARY AT END OF TIME STEP    1 IN STRESS PERIOD   11
                    SECONDS     MINUTES      HOURS       DAYS        YEARS
                    -----------------------------------------------------------
   TIME STEP LENGTH  86400.      1440.0      24.000      1.0000     2.73785E-03
 STRESS PERIOD TIME  86400.      1440.0      24.000      1.0000     2.73785E-03
         TOTAL TIME 9.50400E+05  15840.      264.00      11.000     3.01164E-02


end timestep


start timestep kper="12" kstp="1" mode="normal"

 #Stressperiod Save Options

 BEGIN READING OUTPUT CONTROL FOR STRESS PERIOD 12
      ALL TIME STEPS WILL BE SAVED
      ALL TIME STEPS WILL BE SAVED

 END READING OUTPUT CONTROL FOR STRESS PERIOD 12


 PROCESSING STORAGE PERIOD DATA
 END PROCESSING STORAGE PERIOD DATA


 STRESS PERIOD 12 IS TRANSIENT


 REUSING WELS FROM LAST STRESS PERIOD

 REUSING DRNS FROM LAST STRESS PERIOD

 REUSING RIVS FROM LAST STRESS PERIOD

 REUSING RIVS FROM LAST STRESS PERIOD

 REUSING RCHS FROM LAST STRESS PERIOD
 UBDSV06 SAVING              DRN IN MODEL GWF_1            PACKAGE GWF_1           CONNECTED TO MODEL GWF_1            PACKAGE DRN_SYS1         ON UNIT   1019 AT TIME STEP      1, STRESS PERIOD     12
 UBDSV06 SAVING              RIV IN MODEL GWF_1            PACKAGE GWF_1           CONNECTED TO MODEL GWF_1            PACKAGE RIV_SYS1         ON UNIT   1019 AT TIME STEP      1, STRESS PERIOD     12
 UBDSV06 SAVING              RIV IN MODEL GWF_1            PACKAGE GWF_1           CONNECTED TO MODEL GWF_1            PACKAGE RIV_SYS2         ON UNIT   1019 AT TIME STEP      1, STRESS PERIOD     12

 HEAD WILL BE SAVED ON UNIT 1018 AT END OF TIME STEP    1, STRESS PERIOD   12


  VOLUME BUDGET FOR ENTIRE MODEL AT END OF TIME STEP    1, STRESS PERIOD  12
  ---------------------------------------------------------------------------------------------------

     CUMULATIVE VOLUME      L**3       RATES FOR THIS TIME STEP      L**3/T          PACKAGE NAME    
     ------------------                 ------------------------                     ----------------

           IN:                                      IN:
           ---                                      ---
              STO-SS =       32875.8402                STO-SS =         418.0488     STORAGE                          
                 WEL =       18473.7316                   WEL =         432.8200     RIV_CORR                         
                 DRN =           0.0000                   DRN =           0.0000     DRN_SYS1                         
                 RIV =       10916.2306                   RIV =         302.6320     RIV_SYS1                         
                 RIV =           0.0000                   RIV =           0.0000     RIV_SYS2                         
                 RCH =       29433.4072                   RCH =        3623.9932     RCH_MSW                          

            TOTAL IN =       91699.2097              TOTAL IN =        4777.4940

          OUT:                                     OUT:
          ----                                     ----
              STO-SS =       23140.9741                STO-SS =         927.4035     STORAGE                          
                 WEL =       26087.1557                   WEL =        1135.9821     RIV_CORR                         
                 DRN =        3462.1119                   DRN =         282.1496     DRN_SYS1                         
                 RIV =       16734.7543                   RIV =        1661.2422     RIV_SYS1                         
                 RIV =        9661.5291                   RIV =         770.6994     RIV_SYS2                         
                 RCH =       12612.8835                   RCH =           0.0000     RCH_MSW                          

           TOTAL OUT =       91699.4085             TOTAL OUT =        4777.4767

            IN - OUT =          -0.1987              IN - OUT =       1.7345E-02

 PERCENT DISCREPANCY =          -0.00     PERCENT DISCREPANCY =           0.00




         TIME SUMMARY AT END OF TIME STEP    1 IN STRESS PERIOD   12
                    SECONDS     MINUTES      HOURS       DAYS        YEARS
                    -----------------------------------------------------------
   TIME STEP LENGTH  86400.      1440.0      24.000      1.0000     2.73785E-03
 STRESS PERIOD TIME  86400.      1440.0      24.000      1.0000     2.73785E-03
         TOTAL TIME 1.03680E+06  17280.      288.00      12.000     3.28542E-02


end timestep


start timestep kper="13" kstp="1" mode="normal"

 #Stressperiod Save Options

 BEGIN READING OUTPUT CONTROL FOR STRESS PERIOD 13
      ALL TIME STEPS WILL BE SAVED
      ALL TIME STEPS WILL BE SAVED

 END READING OUTPUT CONTROL FOR STRESS PERIOD 13


 PROCESSING STORAGE PERIOD DATA
 END PROCESSING STORAGE PERIOD DATA


 STRESS PERIOD 13 IS TRANSIENT


 REUSING WELS FROM LAST STRESS PERIOD

 REUSING DRNS FROM LAST STRESS PERIOD

 REUSING RIVS FROM LAST STRESS PERIOD

 REUSING RIVS FROM LAST STRESS PERIOD

 REUSING RCHS FROM LAST STRESS PERIOD
 UBDSV06 SAVING              DRN IN MODEL GWF_1            PACKAGE GWF_1           CONNECTED TO MODEL GWF_1            PACKAGE DRN_SYS1         ON UNIT   1019 AT TIME STEP      1, STRESS PERIOD     13
 UBDSV06 SAVING              RIV IN MODEL GWF_1            PACKAGE GWF_1           CONNECTED TO MODEL GWF_1            PACKAGE RIV_SYS1         ON UNIT   1019 AT TIME STEP      1, STRESS PERIOD     13
 UBDSV06 SAVING              RIV IN MODEL GWF_1            PACKAGE GWF_1           CONNECTED TO MODEL GWF_1            PACKAGE RIV_SYS2         ON UNIT   1019 AT TIME STEP      1, STRESS PERIOD     13

 HEAD WILL BE SAVED ON UNIT 1018 AT END OF TIME STEP    1, STRESS PERIOD   13


  VOLUME BUDGET FOR ENTIRE MODEL AT END OF TIME STEP    1, STRESS PERIOD  13
  ---------------------------------------------------------------------------------------------------

     CUMULATIVE VOLUME      L**3       RATES FOR THIS TIME STEP      L**3/T          PACKAGE NAME    
     ------------------                 ------------------------                     ----------------

           IN:                                      IN:
           ---                                      ---
              STO-SS =       33420.1741                STO-SS =         544.3339     STORAGE                          
                 WEL =       18776.3636                   WEL =         302.6320     RIV_CORR                         
                 DRN =           0.0000                   DRN =           0.0000     DRN_SYS1                         
                 RIV =       11364.8875                   RIV =         448.6569     RIV_SYS1                         
                 RIV =           0.0000                   RIV =           0.0000     RIV_SYS2                         
                 RCH =       32106.1257                   RCH =        2672.7184     RCH_MSW                          

            TOTAL IN =       95667.5509              TOTAL IN =        3968.3412

          OUT:                                     OUT:
          ----                                     ----
              STO-SS =       23224.5952                STO-SS =          83.6211     STORAGE                          
                 WEL =       27748.3979                   WEL =        1661.2422     RIV_CORR                         
                 DRN =        3744.7010                   DRN =         282.5891     DRN_SYS1                         
                 RIV =       17905.9866                   RIV =        1171.2323     RIV_SYS1                         
                 RIV =       10431.1829                   RIV =         769.6539     RIV_SYS2                         
                 RCH =       12612.8835                   RCH =           0.0000     RCH_MSW                          

           TOTAL OUT =       95667.7471             TOTAL OUT =        3968.3387

            IN - OUT =          -0.1962              IN - OUT =       2.5459E-03

 PERCENT DISCREPANCY =          -0.00     PERCENT DISCREPANCY =           0.00




         TIME SUMMARY AT END OF TIME STEP    1 IN STRESS PERIOD   13
                    SECONDS     MINUTES      HOURS       DAYS        YEARS
                    -----------------------------------------------------------
   TIME STEP LENGTH  86400.      1440.0      24.000      1.0000     2.73785E-03
 STRESS PERIOD TIME  86400.      1440.0      24.000      1.0000     2.73785E-03
         TOTAL TIME 1.12320E+06  18720.      312.00      13.000     3.55921E-02


end timestep


start timestep kper="14" kstp="1" mode="normal"

 #Stressperiod Save Options

 BEGIN READING OUTPUT CONTROL FOR STRESS PERIOD 14
      ALL TIME STEPS WILL BE SAVED
      ALL TIME STEPS WILL BE SAVED

 END READING OUTPUT CONTROL FOR STRESS PERIOD 14


 PROCESSING STORAGE PERIOD DATA
 END PROCESSING STORAGE PERIOD DATA


 STRESS PERIOD 14 IS TRANSIENT


 REUSING WELS FROM LAST STRESS PERIOD

 REUSING DRNS FROM LAST STRESS PERIOD

 REUSING RIVS FROM LAST STRESS PERIOD

 REUSING RIVS FROM LAST STRESS PERIOD

 REUSING RCHS FROM LAST STRESS PERIOD
 UBDSV06 SAVING              DRN IN MODEL GWF_1            PACKAGE GWF_1           CONNECTED TO MODEL GWF_1            PACKAGE DRN_SYS1         ON UNIT   1019 AT TIME STEP      1, STRESS PERIOD     14
 UBDSV06 SAVING              RIV IN MODEL GWF_1            PACKAGE GWF_1           CONNECTED TO MODEL GWF_1            PACKAGE RIV_SYS1         ON UNIT   1019 AT TIME STEP      1, STRESS PERIOD     14
 UBDSV06 SAVING              RIV IN MODEL GWF_1            PACKAGE GWF_1           CONNECTED TO MODEL GWF_1            PACKAGE RIV_SYS2         ON UNIT   1019 AT TIME STEP      1, STRESS PERIOD     14

 HEAD WILL BE SAVED ON UNIT 1018 AT END OF TIME STEP    1, STRESS PERIOD   14


  VOLUME BUDGET FOR ENTIRE MODEL AT END OF TIME STEP    1, STRESS PERIOD  14
  ---------------------------------------------------------------------------------------------------

     CUMULATIVE VOLUME      L**3       RATES FOR THIS TIME STEP      L**3/T          PACKAGE NAME    
     ------------------                 ------------------------                     ----------------

           IN:                                      IN:
           ---                                      ---
              STO-SS =       33509.9689                STO-SS =          89.7948     STORAGE                          
                 WEL =       19225.0205                   WEL =         448.6569     RIV_CORR                         
                 DRN =           0.0000                   DRN =           0.0000     DRN_SYS1                         
                 RIV =       11709.3231                   RIV =         344.4356     RIV_SYS1                         
                 RIV =           0.0000                   RIV =           0.0000     RIV_SYS2                         
                 RCH =       35416.2068                   RCH =        3310.0812     RCH_MSW                          

            TOTAL IN =       99860.5194              TOTAL IN =        4192.9684

          OUT:                                     OUT:
          ----                                     ----
              STO-SS =       23690.3765                STO-SS =         465.7813     STORAGE                          
                 WEL =       28919.6302                   WEL =        1171.2323     RIV_CORR                         
                 DRN =        4028.2267                   DRN =         283.5257     DRN_SYS1                         
                 RIV =       19408.0633                   RIV =        1502.0768     RIV_SYS1                         
                 RIV =       11201.5357                   RIV =         770.3528     RIV_SYS2                         
                 RCH =       12612.8835                   RCH =           0.0000     RCH_MSW                          

           TOTAL OUT =       99860.7160             TOTAL OUT =        4192.9689

            IN - OUT =          -0.1966              IN - OUT =      -4.5010E-04

 PERCENT DISCREPANCY =          -0.00     PERCENT DISCREPANCY =          -0.00




         TIME SUMMARY AT END OF TIME STEP    1 IN STRESS PERIOD   14
                    SECONDS     MINUTES      HOURS       DAYS        YEARS
                    -----------------------------------------------------------
   TIME STEP LENGTH  86400.      1440.0      24.000      1.0000     2.73785E-03
 STRESS PERIOD TIME  86400.      1440.0      24.000      1.0000     2.73785E-03
         TOTAL TIME 1.20960E+06  20160.      336.00      14.000     3.83299E-02


end timestep


start timestep kper="15" kstp="1" mode="normal"

 #Stressperiod Save Options

 BEGIN READING OUTPUT CONTROL FOR STRESS PERIOD 15
      ALL TIME STEPS WILL BE SAVED
      ALL TIME STEPS WILL BE SAVED

 END READING OUTPUT CONTROL FOR STRESS PERIOD 15


 PROCESSING STORAGE PERIOD DATA
 END PROCESSING STORAGE PERIOD DATA


 STRESS PERIOD 15 IS TRANSIENT


 REUSING WELS FROM LAST STRESS PERIOD

 REUSING DRNS FROM LAST STRESS PERIOD

 REUSING RIVS FROM LAST STRESS PERIOD

 REUSING RIVS FROM LAST STRESS PERIOD

 REUSING RCHS FROM LAST STRESS PERIOD
 UBDSV06 SAVING              DRN IN MODEL GWF_1            PACKAGE GWF_1           CONNECTED TO MODEL GWF_1            PACKAGE DRN_SYS1         ON UNIT   1019 AT TIME STEP      1, STRESS PERIOD     15
 UBDSV06 SAVING              RIV IN MODEL GWF_1            PACKAGE GWF_1           CONNECTED TO MODEL GWF_1            PACKAGE RIV_SYS1         ON UNIT   1019 AT TIME STEP      1, STRESS PERIOD     15
 UBDSV06 SAVING              RIV IN MODEL GWF_1            PACKAGE GWF_1           CONNECTED TO MODEL GWF_1            PACKAGE RIV_SYS2         ON UNIT   1019 AT TIME STEP      1, STRESS PERIOD     15

 HEAD WILL BE SAVED ON UNIT 1018 AT END OF TIME STEP    1, STRESS PERIOD   15


  VOLUME BUDGET FOR ENTIRE MODEL AT END OF TIME STEP    1, STRESS PERIOD  15
  ---------------------------------------------------------------------------------------------------

     CUMULATIVE VOLUME      L**3       RATES FOR THIS TIME STEP      L**3/T          PACKAGE NAME    
     ------------------                 ------------------------                     ----------------

           IN:                                      IN:
           ---                                      ---
              STO-SS =       34327.7322                STO-SS =         817.7633     STORAGE                          
                 WEL =       19569.4561                   WEL =         344.4356     RIV_CORR                         
                 DRN =           0.0000                   DRN =           0.0000     DRN_SYS1                         
                 RIV =       12235.1655                   RIV =         525.8424     RIV_SYS1                         
                 RIV =           0.0000                   RIV =           0.0000     RIV_SYS2                         
                 RCH =       37421.9826                   RCH =        2005.7758     RCH_MSW                          

            TOTAL IN =      103554.3364              TOTAL IN =        3693.8170

          OUT:                                     OUT:
          ----                                     ----
              STO-SS =       23703.7055                STO-SS =          13.3290     STORAGE                          
                 WEL =       30421.7070                   WEL =        1502.0768     RIV_CORR                         
                 DRN =        4311.0812                   DRN =         282.8545     DRN_SYS1                         
                 RIV =       20533.7854                   RIV =        1125.7220     RIV_SYS1                         
                 RIV =       11969.1611                   RIV =         767.6254     RIV_SYS2                         
                 RCH =       12615.1125                   RCH =           2.2290     RCH_MSW                          

           TOTAL OUT =      103554.5526             TOTAL OUT =        3693.8366

            IN - OUT =          -0.2163              IN - OUT =      -1.9637E-02

 PERCENT DISCREPANCY =          -0.00     PERCENT DISCREPANCY =          -0.00




         TIME SUMMARY AT END OF TIME STEP    1 IN STRESS PERIOD   15
                    SECONDS     MINUTES      HOURS       DAYS        YEARS
                    -----------------------------------------------------------
   TIME STEP LENGTH  86400.      1440.0      24.000      1.0000     2.73785E-03
 STRESS PERIOD TIME  86400.      1440.0      24.000      1.0000     2.73785E-03
         TOTAL TIME 1.29600E+06  21600.      360.00      15.000     4.10678E-02


end timestep


start timestep kper="16" kstp="1" mode="normal"

 #Stressperiod Save Options

 BEGIN READING OUTPUT CONTROL FOR STRESS PERIOD 16
      ALL TIME STEPS WILL BE SAVED
      ALL TIME STEPS WILL BE SAVED

 END READING OUTPUT CONTROL FOR STRESS PERIOD 16


 PROCESSING STORAGE PERIOD DATA
 END PROCESSING STORAGE PERIOD DATA


 STRESS PERIOD 16 IS TRANSIENT


 REUSING WELS FROM LAST STRESS PERIOD

 REUSING DRNS FROM LAST STRESS PERIOD

 REUSING RIVS FROM LAST STRESS PERIOD

 REUSING RIVS FROM LAST STRESS PERIOD

 REUSING RCHS FROM LAST STRESS PERIOD
 UBDSV06 SAVING              DRN IN MODEL GWF_1            PACKAGE GWF_1           CONNECTED TO MODEL GWF_1            PACKAGE DRN_SYS1         ON UNIT   1019 AT TIME STEP      1, STRESS PERIOD     16
 UBDSV06 SAVING              RIV IN MODEL GWF_1            PACKAGE GWF_1           CONNECTED TO MODEL GWF_1            PACKAGE RIV_SYS1         ON UNIT   1019 AT TIME STEP      1, STRESS PERIOD     16
 UBDSV06 SAVING              RIV IN MODEL GWF_1            PACKAGE GWF_1           CONNECTED TO MODEL GWF_1            PACKAGE RIV_SYS2         ON UNIT   1019 AT TIME STEP      1, STRESS PERIOD     16

 HEAD WILL BE SAVED ON UNIT 1018 AT END OF TIME STEP    1, STRESS PERIOD   16


  VOLUME BUDGET FOR ENTIRE MODEL AT END OF TIME STEP    1, STRESS PERIOD  16
  ---------------------------------------------------------------------------------------------------

     CUMULATIVE VOLUME      L**3       RATES FOR THIS TIME STEP      L**3/T          PACKAGE NAME    
     ------------------                 ------------------------                     ----------------

           IN:                                      IN:
           ---                                      ---
              STO-SS =       35194.1331                STO-SS =         866.4009     STORAGE                          
                 WEL =       20095.2985                   WEL =         525.8424     RIV_CORR                         
                 DRN =           0.0000                   DRN =           0.0000     DRN_SYS1                         
                 RIV =       12688.4656                   RIV =         453.3001     RIV_SYS1                         
                 RIV =           0.0000                   RIV =           0.0000     RIV_SYS2                         
                 RCH =       38929.8092                   RCH =        1507.8266     RCH_MSW                          

            TOTAL IN =      106907.7064              TOTAL IN =        3353.3700

          OUT:                                     OUT:
          ----                                     ----
              STO-SS =       23728.6002                STO-SS =          24.8947     STORAGE                          
                 WEL =       31547.4290                   WEL =        1125.7220     RIV_CORR                         
                 DRN =        4592.2667                   DRN =         281.1855     DRN_SYS1                         
                 RIV =       21674.1030                   RIV =        1140.3177     RIV_SYS1                         
                 RIV =       12731.7231                   RIV =         762.5620     RIV_SYS2                         
                 RCH =       12633.8149                   RCH =          18.7024     RCH_MSW                          

           TOTAL OUT =      106907.9370             TOTAL OUT =        3353.3844

            IN - OUT =          -0.2306              IN - OUT =      -1.4358E-02

 PERCENT DISCREPANCY =          -0.00     PERCENT DISCREPANCY =          -0.00




         TIME SUMMARY AT END OF TIME STEP    1 IN STRESS PERIOD   16
                    SECONDS     MINUTES      HOURS       DAYS        YEARS
                    -----------------------------------------------------------
   TIME STEP LENGTH  86400.      1440.0      24.000      1.0000     2.73785E-03
 STRESS PERIOD TIME  86400.      1440.0      24.000      1.0000     2.73785E-03
         TOTAL TIME 1.38240E+06  23040.      384.00      16.000     4.38056E-02


end timestep


start timestep kper="17" kstp="1" mode="normal"

 #Stressperiod Save Options

 BEGIN READING OUTPUT CONTROL FOR STRESS PERIOD 17
      ALL TIME STEPS WILL BE SAVED
      ALL TIME STEPS WILL BE SAVED

 END READING OUTPUT CONTROL FOR STRESS PERIOD 17


 PROCESSING STORAGE PERIOD DATA
 END PROCESSING STORAGE PERIOD DATA


 STRESS PERIOD 17 IS TRANSIENT


 REUSING WELS FROM LAST STRESS PERIOD

 REUSING DRNS FROM LAST STRESS PERIOD

 REUSING RIVS FROM LAST STRESS PERIOD

 REUSING RIVS FROM LAST STRESS PERIOD

 REUSING RCHS FROM LAST STRESS PERIOD
 UBDSV06 SAVING              DRN IN MODEL GWF_1            PACKAGE GWF_1           CONNECTED TO MODEL GWF_1            PACKAGE DRN_SYS1         ON UNIT   1019 AT TIME STEP      1, STRESS PERIOD     17
 UBDSV06 SAVING              RIV IN MODEL GWF_1            PACKAGE GWF_1           CONNECTED TO MODEL GWF_1            PACKAGE RIV_SYS1         ON UNIT   1019 AT TIME STEP      1, STRESS PERIOD     17
 UBDSV06 SAVING              RIV IN MODEL GWF_1            PACKAGE GWF_1           CONNECTED TO MODEL GWF_1            PACKAGE RIV_SYS2         ON UNIT   1019 AT TIME STEP      1, STRESS PERIOD     17

 HEAD WILL BE SAVED ON UNIT 1018 AT END OF TIME STEP    1, STRESS PERIOD   17


  VOLUME BUDGET FOR ENTIRE MODEL AT END OF TIME STEP    1, STRESS PERIOD  17
  ---------------------------------------------------------------------------------------------------

     CUMULATIVE VOLUME      L**3       RATES FOR THIS TIME STEP      L**3/T          PACKAGE NAME    
     ------------------                 ------------------------                     ----------------

           IN:                                      IN:
           ---                                      ---
              STO-SS =       36354.7407                STO-SS =        1160.6076     STORAGE                          
                 WEL =       20548.5986                   WEL =         453.3001     RIV_CORR                         
                 DRN =           0.0000                   DRN =           0.0000     DRN_SYS1                         
                 RIV =       13232.3110                   RIV =         543.8454     RIV_SYS1                         
                 RIV =           0.0000                   RIV =           0.0000     RIV_SYS2                         
                 RCH =       40052.2018                   RCH =        1122.3926     RCH_MSW                          

            TOTAL IN =      110187.8521              TOTAL IN =        3280.1456

          OUT:                                     OUT:
          ----                                     ----
              STO-SS =       23728.6002                STO-SS =           0.0000     STORAGE                          
                 WEL =       32687.7467                   WEL =        1140.3177     RIV_CORR                         
                 DRN =        4871.2605                   DRN =         278.9938     DRN_SYS1                         
                 RIV =       22709.9214                   RIV =        1035.8183     RIV_SYS1                         
                 RIV =       13487.8765                   RIV =         756.1534     RIV_SYS2                         
                 RCH =       12702.6466                   RCH =          68.8317     RCH_MSW                          

           TOTAL OUT =      110188.0519             TOTAL OUT =        3280.1148

            IN - OUT =          -0.1998              IN - OUT =       3.0831E-02

 PERCENT DISCREPANCY =          -0.00     PERCENT DISCREPANCY =           0.00




         TIME SUMMARY AT END OF TIME STEP    1 IN STRESS PERIOD   17
                    SECONDS     MINUTES      HOURS       DAYS        YEARS
                    -----------------------------------------------------------
   TIME STEP LENGTH  86400.      1440.0      24.000      1.0000     2.73785E-03
 STRESS PERIOD TIME  86400.      1440.0      24.000      1.0000     2.73785E-03
         TOTAL TIME 1.46880E+06  24480.      408.00      17.000     4.65435E-02


end timestep


start timestep kper="18" kstp="1" mode="normal"

 #Stressperiod Save Options

 BEGIN READING OUTPUT CONTROL FOR STRESS PERIOD 18
      ALL TIME STEPS WILL BE SAVED
      ALL TIME STEPS WILL BE SAVED

 END READING OUTPUT CONTROL FOR STRESS PERIOD 18


 PROCESSING STORAGE PERIOD DATA
 END PROCESSING STORAGE PERIOD DATA


 STRESS PERIOD 18 IS TRANSIENT


 REUSING WELS FROM LAST STRESS PERIOD

 REUSING DRNS FROM LAST STRESS PERIOD

 REUSING RIVS FROM LAST STRESS PERIOD

 REUSING RIVS FROM LAST STRESS PERIOD

 REUSING RCHS FROM LAST STRESS PERIOD
 UBDSV06 SAVING              DRN IN MODEL GWF_1            PACKAGE GWF_1           CONNECTED TO MODEL GWF_1            PACKAGE DRN_SYS1         ON UNIT   1019 AT TIME STEP      1, STRESS PERIOD     18
 UBDSV06 SAVING              RIV IN MODEL GWF_1            PACKAGE GWF_1           CONNECTED TO MODEL GWF_1            PACKAGE RIV_SYS1         ON UNIT   1019 AT TIME STEP      1, STRESS PERIOD     18
 UBDSV06 SAVING              RIV IN MODEL GWF_1            PACKAGE GWF_1           CONNECTED TO MODEL GWF_1            PACKAGE RIV_SYS2         ON UNIT   1019 AT TIME STEP      1, STRESS PERIOD     18

 HEAD WILL BE SAVED ON UNIT 1018 AT END OF TIME STEP    1, STRESS PERIOD   18


  VOLUME BUDGET FOR ENTIRE MODEL AT END OF TIME STEP    1, STRESS PERIOD  18
  ---------------------------------------------------------------------------------------------------

     CUMULATIVE VOLUME      L**3       RATES FOR THIS TIME STEP      L**3/T          PACKAGE NAME    
     ------------------                 ------------------------                     ----------------

           IN:                                      IN:
           ---                                      ---
              STO-SS =       37504.6961                STO-SS =        1149.9554     STORAGE                          
                 WEL =       21092.4440                   WEL =         543.8454     RIV_CORR                         
                 DRN =           0.0000                   DRN =           0.0000     DRN_SYS1                         
                 RIV =       13753.0469                   RIV =         520.7359     RIV_SYS1                         
                 RIV =           0.0000                   RIV =           0.0000     RIV_SYS2                         
                 RCH =       40945.9655                   RCH =         893.7637     RCH_MSW                          

            TOTAL IN =      113296.1525              TOTAL IN =        3108.3004

          OUT:                                     OUT:
          ----                                     ----
              STO-SS =       23736.5375                STO-SS =           7.9373     STORAGE                          
                 WEL =       33723.5650                   WEL =        1035.8183     RIV_CORR                         
                 DRN =        5147.9160                   DRN =         276.6555     DRN_SYS1                         
                 RIV =       23720.7234                   RIV =        1010.8021     RIV_SYS1                         
                 RIV =       14237.2665                   RIV =         749.3900     RIV_SYS2                         
                 RCH =       12730.4114                   RCH =          27.7648     RCH_MSW                          

           TOTAL OUT =      113296.4199             TOTAL OUT =        3108.3680

            IN - OUT =          -0.2674              IN - OUT =      -6.7584E-02

 PERCENT DISCREPANCY =          -0.00     PERCENT DISCREPANCY =          -0.00




         TIME SUMMARY AT END OF TIME STEP    1 IN STRESS PERIOD   18
                    SECONDS     MINUTES      HOURS       DAYS        YEARS
                    -----------------------------------------------------------
   TIME STEP LENGTH  86400.      1440.0      24.000      1.0000     2.73785E-03
 STRESS PERIOD TIME  86400.      1440.0      24.000      1.0000     2.73785E-03
         TOTAL TIME 1.55520E+06  25920.      432.00      18.000     4.92813E-02


end timestep


start timestep kper="19" kstp="1" mode="normal"

 #Stressperiod Save Options

 BEGIN READING OUTPUT CONTROL FOR STRESS PERIOD 19
      ALL TIME STEPS WILL BE SAVED
      ALL TIME STEPS WILL BE SAVED

 END READING OUTPUT CONTROL FOR STRESS PERIOD 19


 PROCESSING STORAGE PERIOD DATA
 END PROCESSING STORAGE PERIOD DATA


 STRESS PERIOD 19 IS TRANSIENT


 REUSING WELS FROM LAST STRESS PERIOD

 REUSING DRNS FROM LAST STRESS PERIOD

 REUSING RIVS FROM LAST STRESS PERIOD

 REUSING RIVS FROM LAST STRESS PERIOD

 REUSING RCHS FROM LAST STRESS PERIOD
 UBDSV06 SAVING              DRN IN MODEL GWF_1            PACKAGE GWF_1           CONNECTED TO MODEL GWF_1            PACKAGE DRN_SYS1         ON UNIT   1019 AT TIME STEP      1, STRESS PERIOD     19
 UBDSV06 SAVING              RIV IN MODEL GWF_1            PACKAGE GWF_1           CONNECTED TO MODEL GWF_1            PACKAGE RIV_SYS1         ON UNIT   1019 AT TIME STEP      1, STRESS PERIOD     19
 UBDSV06 SAVING              RIV IN MODEL GWF_1            PACKAGE GWF_1           CONNECTED TO MODEL GWF_1            PACKAGE RIV_SYS2         ON UNIT   1019 AT TIME STEP      1, STRESS PERIOD     19

 HEAD WILL BE SAVED ON UNIT 1018 AT END OF TIME STEP    1, STRESS PERIOD   19


  VOLUME BUDGET FOR ENTIRE MODEL AT END OF TIME STEP    1, STRESS PERIOD  19
  ---------------------------------------------------------------------------------------------------

     CUMULATIVE VOLUME      L**3       RATES FOR THIS TIME STEP      L**3/T          PACKAGE NAME    
     ------------------                 ------------------------                     ----------------

           IN:                                      IN:
           ---                                      ---
              STO-SS =       38187.2087                STO-SS =         682.5126     STORAGE                          
                 WEL =       21613.1799                   WEL =         520.7359     RIV_CORR                         
                 DRN =           0.0000                   DRN =           0.0000     DRN_SYS1                         
                 RIV =       14166.5896                   RIV =         413.5427     RIV_SYS1                         
                 RIV =           0.0000                   RIV =           0.0000     RIV_SYS2                         
                 RCH =       42822.5626                   RCH =        1876.5971     RCH_MSW                          

            TOTAL IN =      116789.5408              TOTAL IN =        3493.3883

          OUT:                                     OUT:
          ----                                     ----
              STO-SS =       24003.2954                STO-SS =         266.7578     STORAGE                          
                 WEL =       34734.3671                   WEL =        1010.8021     RIV_CORR                         
                 DRN =        5423.1831                   DRN =         275.2671     DRN_SYS1                         
                 RIV =       24916.4894                   RIV =        1195.7660     RIV_SYS1                         
                 RIV =       14982.0601                   RIV =         744.7936     RIV_SYS2                         
                 RCH =       12730.4114                   RCH =           0.0000     RCH_MSW                          

           TOTAL OUT =      116789.8065             TOTAL OUT =        3493.3866

            IN - OUT =          -0.2656              IN - OUT =       1.7620E-03

 PERCENT DISCREPANCY =          -0.00     PERCENT DISCREPANCY =           0.00




         TIME SUMMARY AT END OF TIME STEP    1 IN STRESS PERIOD   19
                    SECONDS     MINUTES      HOURS       DAYS        YEARS
                    -----------------------------------------------------------
   TIME STEP LENGTH  86400.      1440.0      24.000      1.0000     2.73785E-03
 STRESS PERIOD TIME  86400.      1440.0      24.000      1.0000     2.73785E-03
         TOTAL TIME 1.64160E+06  27360.      456.00      19.000     5.20192E-02


end timestep


start timestep kper="20" kstp="1" mode="normal"

 #Stressperiod Save Options

 BEGIN READING OUTPUT CONTROL FOR STRESS PERIOD 20
      ALL TIME STEPS WILL BE SAVED
      ALL TIME STEPS WILL BE SAVED

 END READING OUTPUT CONTROL FOR STRESS PERIOD 20


 PROCESSING STORAGE PERIOD DATA
 END PROCESSING STORAGE PERIOD DATA


 STRESS PERIOD 20 IS TRANSIENT


 REUSING WELS FROM LAST STRESS PERIOD

 REUSING DRNS FROM LAST STRESS PERIOD

 REUSING RIVS FROM LAST STRESS PERIOD

 REUSING RIVS FROM LAST STRESS PERIOD

 REUSING RCHS FROM LAST STRESS PERIOD
 UBDSV06 SAVING              DRN IN MODEL GWF_1            PACKAGE GWF_1           CONNECTED TO MODEL GWF_1            PACKAGE DRN_SYS1         ON UNIT   1019 AT TIME STEP      1, STRESS PERIOD     20
 UBDSV06 SAVING              RIV IN MODEL GWF_1            PACKAGE GWF_1           CONNECTED TO MODEL GWF_1            PACKAGE RIV_SYS1         ON UNIT   1019 AT TIME STEP      1, STRESS PERIOD     20
 UBDSV06 SAVING              RIV IN MODEL GWF_1            PACKAGE GWF_1           CONNECTED TO MODEL GWF_1            PACKAGE RIV_SYS2         ON UNIT   1019 AT TIME STEP      1, STRESS PERIOD     20

 HEAD WILL BE SAVED ON UNIT 1018 AT END OF TIME STEP    1, STRESS PERIOD   20


  VOLUME BUDGET FOR ENTIRE MODEL AT END OF TIME STEP    1, STRESS PERIOD  20
  ---------------------------------------------------------------------------------------------------

     CUMULATIVE VOLUME      L**3       RATES FOR THIS TIME STEP      L**3/T          PACKAGE NAME    
     ------------------                 ------------------------                     ----------------

           IN:                                      IN:
           ---                                      ---
              STO-SS =       39263.5076                STO-SS =        1076.2988     STORAGE                          
                 WEL =       22026.7226                   WEL =         413.5427     RIV_CORR                         
                 DRN =           0.0000                   DRN =           0.0000     DRN_SYS1                         
                 RIV =       14794.6444                   RIV =         628.0548     RIV_SYS1                         
                 RIV =           0.0000                   RIV =           0.0000     RIV_SYS2                         
                 RCH =       43908.0034                   RCH =        1085.4408     RCH_MSW                          

            TOTAL IN =      119992.8780              TOTAL IN =        3203.3372

          OUT:                                     OUT:
          ----                                     ----
              STO-SS =       24003.2954                STO-SS =           0.0000     STORAGE                          
                 WEL =       35930.1331                   WEL =        1195.7660     RIV_CORR                         
                 DRN =        5696.9519                   DRN =         273.7688     DRN_SYS1                         
                 RIV =       25892.7107                   RIV =         976.2213     RIV_SYS1                         
                 RIV =       15722.1430                   RIV =         740.0829     RIV_SYS2                         
                 RCH =       12747.9174                   RCH =          17.5060     RCH_MSW                          

           TOTAL OUT =      119993.1515             TOTAL OUT =        3203.3450

            IN - OUT =          -0.2735              IN - OUT =      -7.8326E-03

 PERCENT DISCREPANCY =          -0.00     PERCENT DISCREPANCY =          -0.00




         TIME SUMMARY AT END OF TIME STEP    1 IN STRESS PERIOD   20
                    SECONDS     MINUTES      HOURS       DAYS        YEARS
                    -----------------------------------------------------------
   TIME STEP LENGTH  86400.      1440.0      24.000      1.0000     2.73785E-03
 STRESS PERIOD TIME  86400.      1440.0      24.000      1.0000     2.73785E-03
         TOTAL TIME 1.72800E+06  28800.      480.00      20.000     5.47570E-02


end timestep


start timestep kper="21" kstp="1" mode="normal"

 #Stressperiod Save Options

 BEGIN READING OUTPUT CONTROL FOR STRESS PERIOD 21
      ALL TIME STEPS WILL BE SAVED
      ALL TIME STEPS WILL BE SAVED

 END READING OUTPUT CONTROL FOR STRESS PERIOD 21


 PROCESSING STORAGE PERIOD DATA
 END PROCESSING STORAGE PERIOD DATA


 STRESS PERIOD 21 IS TRANSIENT


 REUSING WELS FROM LAST STRESS PERIOD

 REUSING DRNS FROM LAST STRESS PERIOD

 REUSING RIVS FROM LAST STRESS PERIOD

 REUSING RIVS FROM LAST STRESS PERIOD

 REUSING RCHS FROM LAST STRESS PERIOD
 UBDSV06 SAVING              DRN IN MODEL GWF_1            PACKAGE GWF_1           CONNECTED TO MODEL GWF_1            PACKAGE DRN_SYS1         ON UNIT   1019 AT TIME STEP      1, STRESS PERIOD     21
 UBDSV06 SAVING              RIV IN MODEL GWF_1            PACKAGE GWF_1           CONNECTED TO MODEL GWF_1            PACKAGE RIV_SYS1         ON UNIT   1019 AT TIME STEP      1, STRESS PERIOD     21
 UBDSV06 SAVING              RIV IN MODEL GWF_1            PACKAGE GWF_1           CONNECTED TO MODEL GWF_1            PACKAGE RIV_SYS2         ON UNIT   1019 AT TIME STEP      1, STRESS PERIOD     21

 HEAD WILL BE SAVED ON UNIT 1018 AT END OF TIME STEP    1, STRESS PERIOD   21


  VOLUME BUDGET FOR ENTIRE MODEL AT END OF TIME STEP    1, STRESS PERIOD  21
  ---------------------------------------------------------------------------------------------------

     CUMULATIVE VOLUME      L**3       RATES FOR THIS TIME STEP      L**3/T          PACKAGE NAME    
     ------------------                 ------------------------                     ----------------

           IN:                                      IN:
           ---                                      ---
              STO-SS =       40174.7992                STO-SS =         911.2916     STORAGE                          
                 WEL =       22654.7774                   WEL =         628.0548     RIV_CORR                         
                 DRN =           0.0000                   DRN =           0.0000     DRN_SYS1                         
                 RIV =       15321.6550                   RIV =         527.0106     RIV_SYS1                         
                 RIV =           0.0000                   RIV =           0.0000     RIV_SYS2                         
                 RCH =       44845.6160                   RCH =         937.6126     RCH_MSW                          

            TOTAL IN =      122996.8477              TOTAL IN =        3003.9697

          OUT:                                     OUT:
          ----                                     ----
              STO-SS =       24030.7788                STO-SS =          27.4834     STORAGE                          
                 WEL =       36906.3544                   WEL =         976.2213     RIV_CORR                         
                 DRN =        5969.0597                   DRN =         272.1078     DRN_SYS1                         
                 RIV =       26878.1091                   RIV =         985.3984     RIV_SYS1                         
                 RIV =       16457.2812                   RIV =         735.1383     RIV_SYS2                         
                 RCH =       12755.5305                   RCH =           7.6131     RCH_MSW                          

           TOTAL OUT =      122997.1137             TOTAL OUT =        3003.9622

            IN - OUT =          -0.2660              IN - OUT =       7.4812E-03

 PERCENT DISCREPANCY =          -0.00     PERCENT DISCREPANCY =           0.00




         TIME SUMMARY AT END OF TIME STEP    1 IN STRESS PERIOD   21
                    SECONDS     MINUTES      HOURS       DAYS        YEARS
                    -----------------------------------------------------------
   TIME STEP LENGTH  86400.      1440.0      24.000      1.0000     2.73785E-03
 STRESS PERIOD TIME  86400.      1440.0      24.000      1.0000     2.73785E-03
         TOTAL TIME 1.81440E+06  30240.      504.00      21.000     5.74949E-02


end timestep


start timestep kper="22" kstp="1" mode="normal"

 #Stressperiod Save Options

 BEGIN READING OUTPUT CONTROL FOR STRESS PERIOD 22
      ALL TIME STEPS WILL BE SAVED
      ALL TIME STEPS WILL BE SAVED

 END READING OUTPUT CONTROL FOR STRESS PERIOD 22


 PROCESSING STORAGE PERIOD DATA
 END PROCESSING STORAGE PERIOD DATA


 STRESS PERIOD 22 IS TRANSIENT


 REUSING WELS FROM LAST STRESS PERIOD

 REUSING DRNS FROM LAST STRESS PERIOD

 REUSING RIVS FROM LAST STRESS PERIOD

 REUSING RIVS FROM LAST STRESS PERIOD

 REUSING RCHS FROM LAST STRESS PERIOD
 UBDSV06 SAVING              DRN IN MODEL GWF_1            PACKAGE GWF_1           CONNECTED TO MODEL GWF_1            PACKAGE DRN_SYS1         ON UNIT   1019 AT TIME STEP      1, STRESS PERIOD     22
 UBDSV06 SAVING              RIV IN MODEL GWF_1            PACKAGE GWF_1           CONNECTED TO MODEL GWF_1            PACKAGE RIV_SYS1         ON UNIT   1019 AT TIME STEP      1, STRESS PERIOD     22
 UBDSV06 SAVING              RIV IN MODEL GWF_1            PACKAGE GWF_1           CONNECTED TO MODEL GWF_1            PACKAGE RIV_SYS2         ON UNIT   1019 AT TIME STEP      1, STRESS PERIOD     22

 HEAD WILL BE SAVED ON UNIT 1018 AT END OF TIME STEP    1, STRESS PERIOD   22


  VOLUME BUDGET FOR ENTIRE MODEL AT END OF TIME STEP    1, STRESS PERIOD  22
  ---------------------------------------------------------------------------------------------------

     CUMULATIVE VOLUME      L**3       RATES FOR THIS TIME STEP      L**3/T          PACKAGE NAME    
     ------------------                 ------------------------                     ----------------

           IN:                                      IN:
           ---                                      ---
              STO-SS =       40809.5059                STO-SS =         634.7067     STORAGE                          
                 WEL =       23181.7881                   WEL =         527.0106     RIV_CORR                         
                 DRN =           0.0000                   DRN =           0.0000     DRN_SYS1                         
                 RIV =       15799.7335                   RIV =         478.0784     RIV_SYS1                         
                 RIV =           0.0000                   RIV =           0.0000     RIV_SYS2                         
                 RCH =       46305.9646                   RCH =        1460.3485     RCH_MSW                          

            TOTAL IN =      126096.9920              TOTAL IN =        3100.1443

          OUT:                                     OUT:
          ----                                     ----
              STO-SS =       24118.3599                STO-SS =          87.5811     STORAGE                          
                 WEL =       37891.7527                   WEL =         985.3984     RIV_CORR                         
                 DRN =        6239.9278                   DRN =         270.8681     DRN_SYS1                         
                 RIV =       27903.0950                   RIV =        1024.9859     RIV_SYS1                         
                 RIV =       17188.5102                   RIV =         731.2290     RIV_SYS2                         
                 RCH =       12755.5305                   RCH =           0.0000     RCH_MSW                          

           TOTAL OUT =      126097.1762             TOTAL OUT =        3100.0625

            IN - OUT =          -0.1842              IN - OUT =       8.1817E-02

 PERCENT DISCREPANCY =          -0.00     PERCENT DISCREPANCY =           0.00




         TIME SUMMARY AT END OF TIME STEP    1 IN STRESS PERIOD   22
                    SECONDS     MINUTES      HOURS       DAYS        YEARS
                    -----------------------------------------------------------
   TIME STEP LENGTH  86400.      1440.0      24.000      1.0000     2.73785E-03
 STRESS PERIOD TIME  86400.      1440.0      24.000      1.0000     2.73785E-03
         TOTAL TIME 1.90080E+06  31680.      528.00      22.000     6.02327E-02


end timestep


start timestep kper="23" kstp="1" mode="normal"

 #Stressperiod Save Options

 BEGIN READING OUTPUT CONTROL FOR STRESS PERIOD 23
      ALL TIME STEPS WILL BE SAVED
      ALL TIME STEPS WILL BE SAVED

 END READING OUTPUT CONTROL FOR STRESS PERIOD 23


 PROCESSING STORAGE PERIOD DATA
 END PROCESSING STORAGE PERIOD DATA


 STRESS PERIOD 23 IS TRANSIENT


 REUSING WELS FROM LAST STRESS PERIOD

 REUSING DRNS FROM LAST STRESS PERIOD

 REUSING RIVS FROM LAST STRESS PERIOD

 REUSING RIVS FROM LAST STRESS PERIOD

 REUSING RCHS FROM LAST STRESS PERIOD
 UBDSV06 SAVING              DRN IN MODEL GWF_1            PACKAGE GWF_1           CONNECTED TO MODEL GWF_1            PACKAGE DRN_SYS1         ON UNIT   1019 AT TIME STEP      1, STRESS PERIOD     23
 UBDSV06 SAVING              RIV IN MODEL GWF_1            PACKAGE GWF_1           CONNECTED TO MODEL GWF_1            PACKAGE RIV_SYS1         ON UNIT   1019 AT TIME STEP      1, STRESS PERIOD     23
 UBDSV06 SAVING              RIV IN MODEL GWF_1            PACKAGE GWF_1           CONNECTED TO MODEL GWF_1            PACKAGE RIV_SYS2         ON UNIT   1019 AT TIME STEP      1, STRESS PERIOD     23

 HEAD WILL BE SAVED ON UNIT 1018 AT END OF TIME STEP    1, STRESS PERIOD   23


  VOLUME BUDGET FOR ENTIRE MODEL AT END OF TIME STEP    1, STRESS PERIOD  23
  ---------------------------------------------------------------------------------------------------

     CUMULATIVE VOLUME      L**3       RATES FOR THIS TIME STEP      L**3/T          PACKAGE NAME    
     ------------------                 ------------------------                     ----------------

           IN:                                      IN:
           ---                                      ---
              STO-SS =       40809.5059                STO-SS =           0.0000     STORAGE                          
                 WEL =       23659.8665                   WEL =         478.0784     RIV_CORR                         
                 DRN =           0.0000                   DRN =           0.0000     DRN_SYS1                         
                 RIV =       16013.9755                   RIV =         214.2420     RIV_SYS1                         
                 RIV =           0.0000                   RIV =           0.0000     RIV_SYS2                         
                 RCH =       56079.3684                   RCH =        9773.4039     RCH_MSW                          

            TOTAL IN =      136562.7164              TOTAL IN =       10465.7243

          OUT:                                     OUT:
          ----                                     ----
              STO-SS =       30073.0976                STO-SS =        5954.7377     STORAGE                          
                 WEL =       38916.7386                   WEL =        1024.9859     RIV_CORR                         
                 DRN =        6521.5894                   DRN =         281.6616     DRN_SYS1                         
                 RIV =       30352.2771                   RIV =        2449.1822     RIV_SYS1                         
                 RIV =       17943.6349                   RIV =         755.1246     RIV_SYS2                         
                 RCH =       12755.5305                   RCH =           0.0000     RCH_MSW                          

           TOTAL OUT =      136562.8682             TOTAL OUT =       10465.6920

            IN - OUT =          -0.1518              IN - OUT =       3.2375E-02

 PERCENT DISCREPANCY =          -0.00     PERCENT DISCREPANCY =           0.00




         TIME SUMMARY AT END OF TIME STEP    1 IN STRESS PERIOD   23
                    SECONDS     MINUTES      HOURS       DAYS        YEARS
                    -----------------------------------------------------------
   TIME STEP LENGTH  86400.      1440.0      24.000      1.0000     2.73785E-03
 STRESS PERIOD TIME  86400.      1440.0      24.000      1.0000     2.73785E-03
         TOTAL TIME 1.98720E+06  33120.      552.00      23.000     6.29706E-02


end timestep


start timestep kper="24" kstp="1" mode="normal"

 #Stressperiod Save Options

 BEGIN READING OUTPUT CONTROL FOR STRESS PERIOD 24
      ALL TIME STEPS WILL BE SAVED
      ALL TIME STEPS WILL BE SAVED

 END READING OUTPUT CONTROL FOR STRESS PERIOD 24


 PROCESSING STORAGE PERIOD DATA
 END PROCESSING STORAGE PERIOD DATA


 STRESS PERIOD 24 IS TRANSIENT


 REUSING WELS FROM LAST STRESS PERIOD

 REUSING DRNS FROM LAST STRESS PERIOD

 REUSING RIVS FROM LAST STRESS PERIOD

 REUSING RIVS FROM LAST STRESS PERIOD

 REUSING RCHS FROM LAST STRESS PERIOD
 UBDSV06 SAVING              DRN IN MODEL GWF_1            PACKAGE GWF_1           CONNECTED TO MODEL GWF_1            PACKAGE DRN_SYS1         ON UNIT   1019 AT TIME STEP      1, STRESS PERIOD     24
 UBDSV06 SAVING              RIV IN MODEL GWF_1            PACKAGE GWF_1           CONNECTED TO MODEL GWF_1            PACKAGE RIV_SYS1         ON UNIT   1019 AT TIME STEP      1, STRESS PERIOD     24
 UBDSV06 SAVING              RIV IN MODEL GWF_1            PACKAGE GWF_1           CONNECTED TO MODEL GWF_1            PACKAGE RIV_SYS2         ON UNIT   1019 AT TIME STEP      1, STRESS PERIOD     24

 HEAD WILL BE SAVED ON UNIT 1018 AT END OF TIME STEP    1, STRESS PERIOD   24


  VOLUME BUDGET FOR ENTIRE MODEL AT END OF TIME STEP    1, STRESS PERIOD  24
  ---------------------------------------------------------------------------------------------------

     CUMULATIVE VOLUME      L**3       RATES FOR THIS TIME STEP      L**3/T          PACKAGE NAME    
     ------------------                 ------------------------                     ----------------

           IN:                                      IN:
           ---                                      ---
              STO-SS =       42740.6404                STO-SS =        1931.1345     STORAGE                          
                 WEL =       23874.1086                   WEL =         214.2420     RIV_CORR                         
                 DRN =           0.0000                   DRN =           0.0000     DRN_SYS1                         
                 RIV =       16661.6766                   RIV =         647.7011     RIV_SYS1                         
                 RIV =           0.0000                   RIV =           0.0000     RIV_SYS2                         
                 RCH =       59709.9455                   RCH =        3630.5770     RCH_MSW                          

            TOTAL IN =      142986.3711              TOTAL IN =        6423.6547

          OUT:                                     OUT:
          ----                                     ----
              STO-SS =       31164.2956                STO-SS =        1091.1981     STORAGE                          
                 WEL =       41365.9208                   WEL =        2449.1822     RIV_CORR                         
                 DRN =        6806.3299                   DRN =         284.7405     DRN_SYS1                         
                 RIV =       31552.6597                   RIV =        1200.3825     RIV_SYS1                         
                 RIV =       18707.3656                   RIV =         763.7307     RIV_SYS2                         
                 RCH =       13389.9440                   RCH =         634.4135     RCH_MSW                          

           TOTAL OUT =      142986.5156             TOTAL OUT =        6423.6475

            IN - OUT =          -0.1445              IN - OUT =       7.2320E-03

 PERCENT DISCREPANCY =          -0.00     PERCENT DISCREPANCY =           0.00




         TIME SUMMARY AT END OF TIME STEP    1 IN STRESS PERIOD   24
                    SECONDS     MINUTES      HOURS       DAYS        YEARS
                    -----------------------------------------------------------
   TIME STEP LENGTH  86400.      1440.0      24.000      1.0000     2.73785E-03
 STRESS PERIOD TIME  86400.      1440.0      24.000      1.0000     2.73785E-03
         TOTAL TIME 2.07360E+06  34560.      576.00      24.000     6.57084E-02


end timestep


start timestep kper="25" kstp="1" mode="normal"

 #Stressperiod Save Options

 BEGIN READING OUTPUT CONTROL FOR STRESS PERIOD 25
      ALL TIME STEPS WILL BE SAVED
      ALL TIME STEPS WILL BE SAVED

 END READING OUTPUT CONTROL FOR STRESS PERIOD 25


 PROCESSING STORAGE PERIOD DATA
 END PROCESSING STORAGE PERIOD DATA


 STRESS PERIOD 25 IS TRANSIENT


 REUSING WELS FROM LAST STRESS PERIOD

 REUSING DRNS FROM LAST STRESS PERIOD

 REUSING RIVS FROM LAST STRESS PERIOD

 REUSING RIVS FROM LAST STRESS PERIOD

 REUSING RCHS FROM LAST STRESS PERIOD
 UBDSV06 SAVING              DRN IN MODEL GWF_1            PACKAGE GWF_1           CONNECTED TO MODEL GWF_1            PACKAGE DRN_SYS1         ON UNIT   1019 AT TIME STEP      1, STRESS PERIOD     25
 UBDSV06 SAVING              RIV IN MODEL GWF_1            PACKAGE GWF_1           CONNECTED TO MODEL GWF_1            PACKAGE RIV_SYS1         ON UNIT   1019 AT TIME STEP      1, STRESS PERIOD     25
 UBDSV06 SAVING              RIV IN MODEL GWF_1            PACKAGE GWF_1           CONNECTED TO MODEL GWF_1            PACKAGE RIV_SYS2         ON UNIT   1019 AT TIME STEP      1, STRESS PERIOD     25

 HEAD WILL BE SAVED ON UNIT 1018 AT END OF TIME STEP    1, STRESS PERIOD   25


  VOLUME BUDGET FOR ENTIRE MODEL AT END OF TIME STEP    1, STRESS PERIOD  25
  ---------------------------------------------------------------------------------------------------

     CUMULATIVE VOLUME      L**3       RATES FOR THIS TIME STEP      L**3/T          PACKAGE NAME    
     ------------------                 ------------------------                     ----------------

           IN:                                      IN:
           ---                                      ---
              STO-SS =       42740.6404                STO-SS =           0.0000     STORAGE                          
                 WEL =       24521.8097                   WEL =         647.7011     RIV_CORR                         
                 DRN =           0.0000                   DRN =           0.0000     DRN_SYS1                         
                 RIV =       16940.8436                   RIV =         279.1670     RIV_SYS1                         
                 RIV =           0.0000                   RIV =           0.0000     RIV_SYS2                         
                 RCH =       65268.3237                   RCH =        5558.3783     RCH_MSW                          

            TOTAL IN =      149471.6174              TOTAL IN =        6485.2463

          OUT:                                     OUT:
          ----                                     ----
              STO-SS =       33398.7063                STO-SS =        2234.4106     STORAGE                          
                 WEL =       42566.3033                   WEL =        1200.3825     RIV_CORR                         
                 DRN =        7094.8638                   DRN =         288.5339     DRN_SYS1                         
                 RIV =       33540.8795                   RIV =        1988.2199     RIV_SYS1                         
                 RIV =       19481.0642                   RIV =         773.6986     RIV_SYS2                         
                 RCH =       13389.9440                   RCH =           0.0000     RCH_MSW                          

           TOTAL OUT =      149471.7611             TOTAL OUT =        6485.2455

            IN - OUT =          -0.1437              IN - OUT =       8.3785E-04

 PERCENT DISCREPANCY =          -0.00     PERCENT DISCREPANCY =           0.00




         TIME SUMMARY AT END OF TIME STEP    1 IN STRESS PERIOD   25
                    SECONDS     MINUTES      HOURS       DAYS        YEARS
                    -----------------------------------------------------------
   TIME STEP LENGTH  86400.      1440.0      24.000      1.0000     2.73785E-03
 STRESS PERIOD TIME  86400.      1440.0      24.000      1.0000     2.73785E-03
         TOTAL TIME 2.16000E+06  36000.      600.00      25.000     6.84463E-02


end timestep


start timestep kper="26" kstp="1" mode="normal"

 #Stressperiod Save Options

 BEGIN READING OUTPUT CONTROL FOR STRESS PERIOD 26
      ALL TIME STEPS WILL BE SAVED
      ALL TIME STEPS WILL BE SAVED

 END READING OUTPUT CONTROL FOR STRESS PERIOD 26


 PROCESSING STORAGE PERIOD DATA
 END PROCESSING STORAGE PERIOD DATA


 STRESS PERIOD 26 IS TRANSIENT


 REUSING WELS FROM LAST STRESS PERIOD

 REUSING DRNS FROM LAST STRESS PERIOD

 REUSING RIVS FROM LAST STRESS PERIOD

 REUSING RIVS FROM LAST STRESS PERIOD

 REUSING RCHS FROM LAST STRESS PERIOD
 UBDSV06 SAVING              DRN IN MODEL GWF_1            PACKAGE GWF_1           CONNECTED TO MODEL GWF_1            PACKAGE DRN_SYS1         ON UNIT   1019 AT TIME STEP      1, STRESS PERIOD     26
 UBDSV06 SAVING              RIV IN MODEL GWF_1            PACKAGE GWF_1           CONNECTED TO MODEL GWF_1            PACKAGE RIV_SYS1         ON UNIT   1019 AT TIME STEP      1, STRESS PERIOD     26
 UBDSV06 SAVING              RIV IN MODEL GWF_1            PACKAGE GWF_1           CONNECTED TO MODEL GWF_1            PACKAGE RIV_SYS2         ON UNIT   1019 AT TIME STEP      1, STRESS PERIOD     26

 HEAD WILL BE SAVED ON UNIT 1018 AT END OF TIME STEP    1, STRESS PERIOD   26


  VOLUME BUDGET FOR ENTIRE MODEL AT END OF TIME STEP    1, STRESS PERIOD  26
  ---------------------------------------------------------------------------------------------------

     CUMULATIVE VOLUME      L**3       RATES FOR THIS TIME STEP      L**3/T          PACKAGE NAME    
     ------------------                 ------------------------                     ----------------

           IN:                                      IN:
           ---                                      ---
              STO-SS =       43363.0695                STO-SS =         622.4291     STORAGE                          
                 WEL =       24800.9766                   WEL =         279.1670     RIV_CORR                         
                 DRN =           0.0000                   DRN =           0.0000     DRN_SYS1                         
                 RIV =       17372.9873                   RIV =         432.1437     RIV_SYS1                         
                 RIV =           0.0000                   RIV =           0.0000     RIV_SYS2                         
                 RCH =       69104.0086                   RCH =        3835.6849     RCH_MSW                          

            TOTAL IN =      154641.0421              TOTAL IN =        5169.4247

          OUT:                                     OUT:
          ----                                     ----
              STO-SS =       34134.5246                STO-SS =         735.8184     STORAGE                          
                 WEL =       44554.5232                   WEL =        1988.2199     RIV_CORR                         
                 DRN =        7384.8707                   DRN =         290.0069     DRN_SYS1                         
                 RIV =       34850.1601                   RIV =        1309.2806     RIV_SYS1                         
                 RIV =       20258.9520                   RIV =         777.8878     RIV_SYS2                         
                 RCH =       13458.1361                   RCH =          68.1921     RCH_MSW                          

           TOTAL OUT =      154641.1667             TOTAL OUT =        5169.4056

            IN - OUT =          -0.1246              IN - OUT =       1.9121E-02

 PERCENT DISCREPANCY =          -0.00     PERCENT DISCREPANCY =           0.00




         TIME SUMMARY AT END OF TIME STEP    1 IN STRESS PERIOD   26
                    SECONDS     MINUTES      HOURS       DAYS        YEARS
                    -----------------------------------------------------------
   TIME STEP LENGTH  86400.      1440.0      24.000      1.0000     2.73785E-03
 STRESS PERIOD TIME  86400.      1440.0      24.000      1.0000     2.73785E-03
         TOTAL TIME 2.24640E+06  37440.      624.00      26.000     7.11841E-02


end timestep


start timestep kper="27" kstp="1" mode="normal"

 #Stressperiod Save Options

 BEGIN READING OUTPUT CONTROL FOR STRESS PERIOD 27
      ALL TIME STEPS WILL BE SAVED
      ALL TIME STEPS WILL BE SAVED

 END READING OUTPUT CONTROL FOR STRESS PERIOD 27


 PROCESSING STORAGE PERIOD DATA
 END PROCESSING STORAGE PERIOD DATA


 STRESS PERIOD 27 IS TRANSIENT


 REUSING WELS FROM LAST STRESS PERIOD

 REUSING DRNS FROM LAST STRESS PERIOD

 REUSING RIVS FROM LAST STRESS PERIOD

 REUSING RIVS FROM LAST STRESS PERIOD

 REUSING RCHS FROM LAST STRESS PERIOD
 UBDSV06 SAVING              DRN IN MODEL GWF_1            PACKAGE GWF_1           CONNECTED TO MODEL GWF_1            PACKAGE DRN_SYS1         ON UNIT   1019 AT TIME STEP      1, STRESS PERIOD     27
 UBDSV06 SAVING              RIV IN MODEL GWF_1            PACKAGE GWF_1           CONNECTED TO MODEL GWF_1            PACKAGE RIV_SYS1         ON UNIT   1019 AT TIME STEP      1, STRESS PERIOD     27
 UBDSV06 SAVING              RIV IN MODEL GWF_1            PACKAGE GWF_1           CONNECTED TO MODEL GWF_1            PACKAGE RIV_SYS2         ON UNIT   1019 AT TIME STEP      1, STRESS PERIOD     27

 HEAD WILL BE SAVED ON UNIT 1018 AT END OF TIME STEP    1, STRESS PERIOD   27


  VOLUME BUDGET FOR ENTIRE MODEL AT END OF TIME STEP    1, STRESS PERIOD  27
  ---------------------------------------------------------------------------------------------------

     CUMULATIVE VOLUME      L**3       RATES FOR THIS TIME STEP      L**3/T          PACKAGE NAME    
     ------------------                 ------------------------                     ----------------

           IN:                                      IN:
           ---                                      ---
              STO-SS =       43363.0695                STO-SS =           0.0000     STORAGE                          
                 WEL =       25233.1204                   WEL =         432.1437     RIV_CORR                         
                 DRN =           0.0000                   DRN =           0.0000     DRN_SYS1                         
                 RIV =       17644.7440                   RIV =         271.7567     RIV_SYS1                         
                 RIV =           0.0000                   RIV =           0.0000     RIV_SYS2                         
                 RCH =       75041.2784                   RCH =        5937.2698     RCH_MSW                          

            TOTAL IN =      161282.2123              TOTAL IN =        6641.1702

          OUT:                                     OUT:
          ----                                     ----
              STO-SS =       36364.4100                STO-SS =        2229.8853     STORAGE                          
                 WEL =       45863.8038                   WEL =        1309.2806     RIV_CORR                         
                 DRN =        7678.8308                   DRN =         293.9601     DRN_SYS1                         
                 RIV =       36870.5139                   RIV =        2020.3538     RIV_SYS1                         
                 RIV =       21046.6362                   RIV =         787.6842     RIV_SYS2                         
                 RCH =       13458.1361                   RCH =           0.0000     RCH_MSW                          

           TOTAL OUT =      161282.3306             TOTAL OUT =        6641.1639

            IN - OUT =          -0.1183              IN - OUT =       6.2898E-03

 PERCENT DISCREPANCY =          -0.00     PERCENT DISCREPANCY =           0.00




         TIME SUMMARY AT END OF TIME STEP    1 IN STRESS PERIOD   27
                    SECONDS     MINUTES      HOURS       DAYS        YEARS
                    -----------------------------------------------------------
   TIME STEP LENGTH  86400.      1440.0      24.000      1.0000     2.73785E-03
 STRESS PERIOD TIME  86400.      1440.0      24.000      1.0000     2.73785E-03
         TOTAL TIME 2.33280E+06  38880.      648.00      27.000     7.39220E-02


end timestep


start timestep kper="28" kstp="1" mode="normal"

 #Stressperiod Save Options

 BEGIN READING OUTPUT CONTROL FOR STRESS PERIOD 28
      ALL TIME STEPS WILL BE SAVED
      ALL TIME STEPS WILL BE SAVED

 END READING OUTPUT CONTROL FOR STRESS PERIOD 28


 PROCESSING STORAGE PERIOD DATA
 END PROCESSING STORAGE PERIOD DATA


 STRESS PERIOD 28 IS TRANSIENT


 REUSING WELS FROM LAST STRESS PERIOD

 REUSING DRNS FROM LAST STRESS PERIOD

 REUSING RIVS FROM LAST STRESS PERIOD

 REUSING RIVS FROM LAST STRESS PERIOD

 REUSING RCHS FROM LAST STRESS PERIOD
 UBDSV06 SAVING              DRN IN MODEL GWF_1            PACKAGE GWF_1           CONNECTED TO MODEL GWF_1            PACKAGE DRN_SYS1         ON UNIT   1019 AT TIME STEP      1, STRESS PERIOD     28
 UBDSV06 SAVING              RIV IN MODEL GWF_1            PACKAGE GWF_1           CONNECTED TO MODEL GWF_1            PACKAGE RIV_SYS1         ON UNIT   1019 AT TIME STEP      1, STRESS PERIOD     28
 UBDSV06 SAVING              RIV IN MODEL GWF_1            PACKAGE GWF_1           CONNECTED TO MODEL GWF_1            PACKAGE RIV_SYS2         ON UNIT   1019 AT TIME STEP      1, STRESS PERIOD     28

 HEAD WILL BE SAVED ON UNIT 1018 AT END OF TIME STEP    1, STRESS PERIOD   28


  VOLUME BUDGET FOR ENTIRE MODEL AT END OF TIME STEP    1, STRESS PERIOD  28
  ---------------------------------------------------------------------------------------------------

     CUMULATIVE VOLUME      L**3       RATES FOR THIS TIME STEP      L**3/T          PACKAGE NAME    
     ------------------                 ------------------------                     ----------------

           IN:                                      IN:
           ---                                      ---
              STO-SS =       44243.3758                STO-SS =         880.3063     STORAGE                          
                 WEL =       25504.8770                   WEL =         271.7567     RIV_CORR                         
                 DRN =           0.0000                   DRN =           0.0000     DRN_SYS1                         
                 RIV =       18109.4266                   RIV =         464.6826     RIV_SYS1                         
                 RIV =           0.0000                   RIV =           0.0000     RIV_SYS2                         
                 RCH =       78291.6417                   RCH =        3250.3633     RCH_MSW                          

            TOTAL IN =      166149.3212              TOTAL IN =        4867.1089

          OUT:                                     OUT:
          ----                                     ----
              STO-SS =       36790.0313                STO-SS =         425.6213     STORAGE                          
                 WEL =       47884.1575                   WEL =        2020.3538     RIV_CORR                         
                 DRN =        7973.1045                   DRN =         294.2738     DRN_SYS1                         
                 RIV =       38176.8957                   RIV =        1306.3818     RIV_SYS1                         
                 RIV =       21835.6525                   RIV =         789.0164     RIV_SYS2                         
                 RCH =       13489.5808                   RCH =          31.4447     RCH_MSW                          

           TOTAL OUT =      166149.4223             TOTAL OUT =        4867.0917

            IN - OUT =          -0.1011              IN - OUT =       1.7166E-02

 PERCENT DISCREPANCY =          -0.00     PERCENT DISCREPANCY =           0.00




         TIME SUMMARY AT END OF TIME STEP    1 IN STRESS PERIOD   28
                    SECONDS     MINUTES      HOURS       DAYS        YEARS
                    -----------------------------------------------------------
   TIME STEP LENGTH  86400.      1440.0      24.000      1.0000     2.73785E-03
 STRESS PERIOD TIME  86400.      1440.0      24.000      1.0000     2.73785E-03
         TOTAL TIME 2.41920E+06  40320.      672.00      28.000     7.66598E-02


end timestep


start timestep kper="29" kstp="1" mode="normal"

 #Stressperiod Save Options

 BEGIN READING OUTPUT CONTROL FOR STRESS PERIOD 29
      ALL TIME STEPS WILL BE SAVED
      ALL TIME STEPS WILL BE SAVED

 END READING OUTPUT CONTROL FOR STRESS PERIOD 29


 PROCESSING STORAGE PERIOD DATA
 END PROCESSING STORAGE PERIOD DATA


 STRESS PERIOD 29 IS TRANSIENT


 REUSING WELS FROM LAST STRESS PERIOD

 REUSING DRNS FROM LAST STRESS PERIOD

 REUSING RIVS FROM LAST STRESS PERIOD

 REUSING RIVS FROM LAST STRESS PERIOD

 REUSING RCHS FROM LAST STRESS PERIOD
 UBDSV06 SAVING              DRN IN MODEL GWF_1            PACKAGE GWF_1           CONNECTED TO MODEL GWF_1            PACKAGE DRN_SYS1         ON UNIT   1019 AT TIME STEP      1, STRESS PERIOD     29
 UBDSV06 SAVING              RIV IN MODEL GWF_1            PACKAGE GWF_1           CONNECTED TO MODEL GWF_1            PACKAGE RIV_SYS1         ON UNIT   1019 AT TIME STEP      1, STRESS PERIOD     29
 UBDSV06 SAVING              RIV IN MODEL GWF_1            PACKAGE GWF_1           CONNECTED TO MODEL GWF_1            PACKAGE RIV_SYS2         ON UNIT   1019 AT TIME STEP      1, STRESS PERIOD     29

 HEAD WILL BE SAVED ON UNIT 1018 AT END OF TIME STEP    1, STRESS PERIOD   29


  VOLUME BUDGET FOR ENTIRE MODEL AT END OF TIME STEP    1, STRESS PERIOD  29
  ---------------------------------------------------------------------------------------------------

     CUMULATIVE VOLUME      L**3       RATES FOR THIS TIME STEP      L**3/T          PACKAGE NAME    
     ------------------                 ------------------------                     ----------------

           IN:                                      IN:
           ---                                      ---
              STO-SS =       44769.8945                STO-SS =         526.5187     STORAGE                          
                 WEL =       25969.5596                   WEL =         464.6826     RIV_CORR                         
                 DRN =           0.0000                   DRN =           0.0000     DRN_SYS1                         
                 RIV =       18469.5681                   RIV =         360.1415     RIV_SYS1                         
                 RIV =           0.0000                   RIV =           0.0000     RIV_SYS2                         
                 RCH =       80931.9274                   RCH =        2640.2857     RCH_MSW                          

            TOTAL IN =      170140.9496              TOTAL IN =        3991.6284

          OUT:                                     OUT:
          ----                                     ----
              STO-SS =       36936.7626                STO-SS =         146.7313     STORAGE                          
                 WEL =       49190.5393                   WEL =        1306.3818     RIV_CORR                         
                 DRN =        8266.1964                   DRN =         293.0919     DRN_SYS1                         
                 RIV =       39636.0522                   RIV =        1459.1565     RIV_SYS1                         
                 RIV =       22621.9042                   RIV =         786.2517     RIV_SYS2                         
                 RCH =       13489.5808                   RCH =           0.0000     RCH_MSW                          

           TOTAL OUT =      170141.0355             TOTAL OUT =        3991.6131

            IN - OUT =      -8.5839E-02              IN - OUT =       1.5294E-02

 PERCENT DISCREPANCY =          -0.00     PERCENT DISCREPANCY =           0.00




         TIME SUMMARY AT END OF TIME STEP    1 IN STRESS PERIOD   29
                    SECONDS     MINUTES      HOURS       DAYS        YEARS
                    -----------------------------------------------------------
   TIME STEP LENGTH  86400.      1440.0      24.000      1.0000     2.73785E-03
 STRESS PERIOD TIME  86400.      1440.0      24.000      1.0000     2.73785E-03
         TOTAL TIME 2.50560E+06  41760.      696.00      29.000     7.93977E-02


end timestep


start timestep kper="30" kstp="1" mode="normal"

 #Stressperiod Save Options

 BEGIN READING OUTPUT CONTROL FOR STRESS PERIOD 30
      ALL TIME STEPS WILL BE SAVED
      ALL TIME STEPS WILL BE SAVED

 END READING OUTPUT CONTROL FOR STRESS PERIOD 30


 PROCESSING STORAGE PERIOD DATA
 END PROCESSING STORAGE PERIOD DATA


 STRESS PERIOD 30 IS TRANSIENT


 REUSING WELS FROM LAST STRESS PERIOD

 REUSING DRNS FROM LAST STRESS PERIOD

 REUSING RIVS FROM LAST STRESS PERIOD

 REUSING RIVS FROM LAST STRESS PERIOD

 REUSING RCHS FROM LAST STRESS PERIOD
 UBDSV06 SAVING              DRN IN MODEL GWF_1            PACKAGE GWF_1           CONNECTED TO MODEL GWF_1            PACKAGE DRN_SYS1         ON UNIT   1019 AT TIME STEP      1, STRESS PERIOD     30
 UBDSV06 SAVING              RIV IN MODEL GWF_1            PACKAGE GWF_1           CONNECTED TO MODEL GWF_1            PACKAGE RIV_SYS1         ON UNIT   1019 AT TIME STEP      1, STRESS PERIOD     30
 UBDSV06 SAVING              RIV IN MODEL GWF_1            PACKAGE GWF_1           CONNECTED TO MODEL GWF_1            PACKAGE RIV_SYS2         ON UNIT   1019 AT TIME STEP      1, STRESS PERIOD     30

 HEAD WILL BE SAVED ON UNIT 1018 AT END OF TIME STEP    1, STRESS PERIOD   30


  VOLUME BUDGET FOR ENTIRE MODEL AT END OF TIME STEP    1, STRESS PERIOD  30
  ---------------------------------------------------------------------------------------------------

     CUMULATIVE VOLUME      L**3       RATES FOR THIS TIME STEP      L**3/T          PACKAGE NAME    
     ------------------                 ------------------------                     ----------------

           IN:                                      IN:
           ---                                      ---
              STO-SS =       45625.9864                STO-SS =         856.0919     STORAGE                          
                 WEL =       26329.7012                   WEL =         360.1415     RIV_CORR                         
                 DRN =           0.0000                   DRN =           0.0000     DRN_SYS1                         
                 RIV =       18880.0113                   RIV =         410.4432     RIV_SYS1                         
                 RIV =           0.0000                   RIV =           0.0000     RIV_SYS2                         
                 RCH =       83090.8616                   RCH =        2158.9342     RCH_MSW                          

            TOTAL IN =      173926.5604              TOTAL IN =        3785.6108

          OUT:                                     OUT:
          ----                                     ----
              STO-SS =       36938.7979                STO-SS =           2.0354     STORAGE                          
                 WEL =       50649.6958                   WEL =        1459.1565     RIV_CORR                         
                 DRN =        8557.4900                   DRN =         291.2937     DRN_SYS1                         
                 RIV =       40887.6463                   RIV =        1251.5941     RIV_SYS1                         
                 RIV =       23403.4373                   RIV =         781.5331     RIV_SYS2                         
                 RCH =       13489.5808                   RCH =           0.0000     RCH_MSW                          

           TOTAL OUT =      173926.6482             TOTAL OUT =        3785.6127

            IN - OUT =      -8.7777E-02              IN - OUT =      -1.9378E-03

 PERCENT DISCREPANCY =          -0.00     PERCENT DISCREPANCY =          -0.00




         TIME SUMMARY AT END OF TIME STEP    1 IN STRESS PERIOD   30
                    SECONDS     MINUTES      HOURS       DAYS        YEARS
                    -----------------------------------------------------------
   TIME STEP LENGTH  86400.      1440.0      24.000      1.0000     2.73785E-03
 STRESS PERIOD TIME  86400.      1440.0      24.000      1.0000     2.73785E-03
         TOTAL TIME 2.59200E+06  43200.      720.00      30.000     8.21355E-02


end timestep


start timestep kper="31" kstp="1" mode="normal"

 #Stressperiod Save Options

 BEGIN READING OUTPUT CONTROL FOR STRESS PERIOD 31
      ALL TIME STEPS WILL BE SAVED
      ALL TIME STEPS WILL BE SAVED

 END READING OUTPUT CONTROL FOR STRESS PERIOD 31


 PROCESSING STORAGE PERIOD DATA
 END PROCESSING STORAGE PERIOD DATA


 STRESS PERIOD 31 IS TRANSIENT


 REUSING WELS FROM LAST STRESS PERIOD

 REUSING DRNS FROM LAST STRESS PERIOD

 REUSING RIVS FROM LAST STRESS PERIOD

 REUSING RIVS FROM LAST STRESS PERIOD

 REUSING RCHS FROM LAST STRESS PERIOD
 UBDSV06 SAVING              DRN IN MODEL GWF_1            PACKAGE GWF_1           CONNECTED TO MODEL GWF_1            PACKAGE DRN_SYS1         ON UNIT   1019 AT TIME STEP      1, STRESS PERIOD     31
 UBDSV06 SAVING              RIV IN MODEL GWF_1            PACKAGE GWF_1           CONNECTED TO MODEL GWF_1            PACKAGE RIV_SYS1         ON UNIT   1019 AT TIME STEP      1, STRESS PERIOD     31
 UBDSV06 SAVING              RIV IN MODEL GWF_1            PACKAGE GWF_1           CONNECTED TO MODEL GWF_1            PACKAGE RIV_SYS2         ON UNIT   1019 AT TIME STEP      1, STRESS PERIOD     31

 HEAD WILL BE SAVED ON UNIT 1018 AT END OF TIME STEP    1, STRESS PERIOD   31


  VOLUME BUDGET FOR ENTIRE MODEL AT END OF TIME STEP    1, STRESS PERIOD  31
  ---------------------------------------------------------------------------------------------------

     CUMULATIVE VOLUME      L**3       RATES FOR THIS TIME STEP      L**3/T          PACKAGE NAME    
     ------------------                 ------------------------                     ----------------

           IN:                                      IN:
           ---                                      ---
              STO-SS =       46836.3504                STO-SS =        1210.3641     STORAGE                          
                 WEL =       26740.1443                   WEL =         410.4432     RIV_CORR                         
                 DRN =           0.0000                   DRN =           0.0000     DRN_SYS1                         
                 RIV =       19322.2211                   RIV =         442.2098     RIV_SYS1                         
                 RIV =           0.0000                   RIV =           0.0000     RIV_SYS2                         
                 RCH =       84551.1338                   RCH =        1460.2722     RCH_MSW                          

            TOTAL IN =      177449.8496              TOTAL IN =        3523.2892

          OUT:                                     OUT:
          ----                                     ----
              STO-SS =       36940.6568                STO-SS =           1.8589     STORAGE                          
                 WEL =       51901.2899                   WEL =        1251.5941     RIV_CORR                         
                 DRN =        8846.3103                   DRN =         288.8203     DRN_SYS1                         
                 RIV =       42067.9135                   RIV =        1180.2672     RIV_SYS1                         
                 RIV =       24178.5004                   RIV =         775.0631     RIV_SYS2                         
                 RCH =       13515.2806                   RCH =          25.6998     RCH_MSW                          

           TOTAL OUT =      177449.9515             TOTAL OUT =        3523.3033

            IN - OUT =          -0.1019              IN - OUT =      -1.4159E-02

 PERCENT DISCREPANCY =          -0.00     PERCENT DISCREPANCY =          -0.00




         TIME SUMMARY AT END OF TIME STEP    1 IN STRESS PERIOD   31
                    SECONDS     MINUTES      HOURS       DAYS        YEARS
                    -----------------------------------------------------------
   TIME STEP LENGTH  86400.      1440.0      24.000      1.0000     2.73785E-03
 STRESS PERIOD TIME  86400.      1440.0      24.000      1.0000     2.73785E-03
         TOTAL TIME 2.67840E+06  44640.      744.00      31.000     8.48734E-02


end timestep


start timestep kper="32" kstp="1" mode="normal"

 #Stressperiod Save Options

 BEGIN READING OUTPUT CONTROL FOR STRESS PERIOD 32
      ALL TIME STEPS WILL BE SAVED
      ALL TIME STEPS WILL BE SAVED

 END READING OUTPUT CONTROL FOR STRESS PERIOD 32


 PROCESSING STORAGE PERIOD DATA
 END PROCESSING STORAGE PERIOD DATA


 STRESS PERIOD 32 IS TRANSIENT


 REUSING WELS FROM LAST STRESS PERIOD

 REUSING DRNS FROM LAST STRESS PERIOD

 REUSING RIVS FROM LAST STRESS PERIOD

 REUSING RIVS FROM LAST STRESS PERIOD

 REUSING RCHS FROM LAST STRESS PERIOD
 UBDSV06 SAVING              DRN IN MODEL GWF_1            PACKAGE GWF_1           CONNECTED TO MODEL GWF_1            PACKAGE DRN_SYS1         ON UNIT   1019 AT TIME STEP      1, STRESS PERIOD     32
 UBDSV06 SAVING              RIV IN MODEL GWF_1            PACKAGE GWF_1           CONNECTED TO MODEL GWF_1            PACKAGE RIV_SYS1         ON UNIT   1019 AT TIME STEP      1, STRESS PERIOD     32
 UBDSV06 SAVING              RIV IN MODEL GWF_1            PACKAGE GWF_1           CONNECTED TO MODEL GWF_1            PACKAGE RIV_SYS2         ON UNIT   1019 AT TIME STEP      1, STRESS PERIOD     32

 HEAD WILL BE SAVED ON UNIT 1018 AT END OF TIME STEP    1, STRESS PERIOD   32


  VOLUME BUDGET FOR ENTIRE MODEL AT END OF TIME STEP    1, STRESS PERIOD  32
  ---------------------------------------------------------------------------------------------------

     CUMULATIVE VOLUME      L**3       RATES FOR THIS TIME STEP      L**3/T          PACKAGE NAME    
     ------------------                 ------------------------                     ----------------

           IN:                                      IN:
           ---                                      ---
              STO-SS =       47826.8293                STO-SS =         990.4789     STORAGE                          
                 WEL =       27182.3541                   WEL =         442.2098     RIV_CORR                         
                 DRN =           0.0000                   DRN =           0.0000     DRN_SYS1                         
                 RIV =       19736.1181                   RIV =         413.8970     RIV_SYS1                         
                 RIV =           0.0000                   RIV =           0.0000     RIV_SYS2                         
                 RCH =       86187.4918                   RCH =        1636.3580     RCH_MSW                          

            TOTAL IN =      180932.7934              TOTAL IN =        3482.9438

          OUT:                                     OUT:
          ----                                     ----
              STO-SS =       36972.7749                STO-SS =          32.1181     STORAGE                          
                 WEL =       53081.5571                   WEL =        1180.2672     RIV_CORR                         
                 DRN =        9132.8930                   DRN =         286.5827     DRN_SYS1                         
                 RIV =       43282.9561                   RIV =        1215.0426     RIV_SYS1                         
                 RIV =       24947.4289                   RIV =         768.9285     RIV_SYS2                         
                 RCH =       13515.2806                   RCH =           0.0000     RCH_MSW                          

           TOTAL OUT =      180932.8906             TOTAL OUT =        3482.9391

            IN - OUT =      -9.7234E-02              IN - OUT =       4.7020E-03

 PERCENT DISCREPANCY =          -0.00     PERCENT DISCREPANCY =           0.00




         TIME SUMMARY AT END OF TIME STEP    1 IN STRESS PERIOD   32
                    SECONDS     MINUTES      HOURS       DAYS        YEARS
                    -----------------------------------------------------------
   TIME STEP LENGTH  86400.      1440.0      24.000      1.0000     2.73785E-03
 STRESS PERIOD TIME  86400.      1440.0      24.000      1.0000     2.73785E-03
         TOTAL TIME 2.76480E+06  46080.      768.00      32.000     8.76112E-02


end timestep


start timestep kper="33" kstp="1" mode="normal"

 #Stressperiod Save Options

 BEGIN READING OUTPUT CONTROL FOR STRESS PERIOD 33
      ALL TIME STEPS WILL BE SAVED
      ALL TIME STEPS WILL BE SAVED

 END READING OUTPUT CONTROL FOR STRESS PERIOD 33


 PROCESSING STORAGE PERIOD DATA
 END PROCESSING STORAGE PERIOD DATA


 STRESS PERIOD 33 IS TRANSIENT


 REUSING WELS FROM LAST STRESS PERIOD

 REUSING DRNS FROM LAST STRESS PERIOD

 REUSING RIVS FROM LAST STRESS PERIOD

 REUSING RIVS FROM LAST STRESS PERIOD

 REUSING RCHS FROM LAST STRESS PERIOD
 UBDSV06 SAVING              DRN IN MODEL GWF_1            PACKAGE GWF_1           CONNECTED TO MODEL GWF_1            PACKAGE DRN_SYS1         ON UNIT   1019 AT TIME STEP      1, STRESS PERIOD     33
 UBDSV06 SAVING              RIV IN MODEL GWF_1            PACKAGE GWF_1           CONNECTED TO MODEL GWF_1            PACKAGE RIV_SYS1         ON UNIT   1019 AT TIME STEP      1, STRESS PERIOD     33
 UBDSV06 SAVING              RIV IN MODEL GWF_1            PACKAGE GWF_1           CONNECTED TO MODEL GWF_1            PACKAGE RIV_SYS2         ON UNIT   1019 AT TIME STEP      1, STRESS PERIOD     33

 HEAD WILL BE SAVED ON UNIT 1018 AT END OF TIME STEP    1, STRESS PERIOD   33


  VOLUME BUDGET FOR ENTIRE MODEL AT END OF TIME STEP    1, STRESS PERIOD  33
  ---------------------------------------------------------------------------------------------------

     CUMULATIVE VOLUME      L**3       RATES FOR THIS TIME STEP      L**3/T          PACKAGE NAME    
     ------------------                 ------------------------                     ----------------

           IN:                                      IN:
           ---                                      ---
              STO-SS =       49206.5557                STO-SS =        1379.7264     STORAGE                          
                 WEL =       27596.2511                   WEL =         413.8970     RIV_CORR                         
                 DRN =           0.0000                   DRN =           0.0000     DRN_SYS1                         
                 RIV =       20253.6364                   RIV =         517.5183     RIV_SYS1                         
                 RIV =           0.0000                   RIV =           0.0000     RIV_SYS2                         
                 RCH =       87248.7527                   RCH =        1061.2609     RCH_MSW                          

            TOTAL IN =      184305.1959              TOTAL IN =        3372.4026

          OUT:                                     OUT:
          ----                                     ----
              STO-SS =       36972.7749                STO-SS =           0.0000     STORAGE                          
                 WEL =       54296.5997                   WEL =        1215.0426     RIV_CORR                         
                 DRN =        9416.9282                   DRN =         284.0352     DRN_SYS1                         
                 RIV =       44353.5970                   RIV =        1070.6409     RIV_SYS1                         
                 RIV =       25709.5514                   RIV =         762.1225     RIV_SYS2                         
                 RCH =       13555.8770                   RCH =          40.5964     RCH_MSW                          

           TOTAL OUT =      184305.3283             TOTAL OUT =        3372.4377

            IN - OUT =          -0.1323              IN - OUT =      -3.5092E-02

 PERCENT DISCREPANCY =          -0.00     PERCENT DISCREPANCY =          -0.00




         TIME SUMMARY AT END OF TIME STEP    1 IN STRESS PERIOD   33
                    SECONDS     MINUTES      HOURS       DAYS        YEARS
                    -----------------------------------------------------------
   TIME STEP LENGTH  86400.      1440.0      24.000      1.0000     2.73785E-03
 STRESS PERIOD TIME  86400.      1440.0      24.000      1.0000     2.73785E-03
         TOTAL TIME 2.85120E+06  47520.      792.00      33.000     9.03491E-02


end timestep


start timestep kper="34" kstp="1" mode="normal"

 #Stressperiod Save Options

 BEGIN READING OUTPUT CONTROL FOR STRESS PERIOD 34
      ALL TIME STEPS WILL BE SAVED
      ALL TIME STEPS WILL BE SAVED

 END READING OUTPUT CONTROL FOR STRESS PERIOD 34


 PROCESSING STORAGE PERIOD DATA
 END PROCESSING STORAGE PERIOD DATA


 STRESS PERIOD 34 IS TRANSIENT


 REUSING WELS FROM LAST STRESS PERIOD

 REUSING DRNS FROM LAST STRESS PERIOD

 REUSING RIVS FROM LAST STRESS PERIOD

 REUSING RIVS FROM LAST STRESS PERIOD

 REUSING RCHS FROM LAST STRESS PERIOD
 UBDSV06 SAVING              DRN IN MODEL GWF_1            PACKAGE GWF_1           CONNECTED TO MODEL GWF_1            PACKAGE DRN_SYS1         ON UNIT   1019 AT TIME STEP      1, STRESS PERIOD     34
 UBDSV06 SAVING              RIV IN MODEL GWF_1            PACKAGE GWF_1           CONNECTED TO MODEL GWF_1            PACKAGE RIV_SYS1         ON UNIT   1019 AT TIME STEP      1, STRESS PERIOD     34
 UBDSV06 SAVING              RIV IN MODEL GWF_1            PACKAGE GWF_1           CONNECTED TO MODEL GWF_1            PACKAGE RIV_SYS2         ON UNIT   1019 AT TIME STEP      1, STRESS PERIOD     34

 HEAD WILL BE SAVED ON UNIT 1018 AT END OF TIME STEP    1, STRESS PERIOD   34


  VOLUME BUDGET FOR ENTIRE MODEL AT END OF TIME STEP    1, STRESS PERIOD  34
  ---------------------------------------------------------------------------------------------------

     CUMULATIVE VOLUME      L**3       RATES FOR THIS TIME STEP      L**3/T          PACKAGE NAME    
     ------------------                 ------------------------                     ----------------

           IN:                                      IN:
           ---                                      ---
              STO-SS =       50199.2110                STO-SS =         992.6553     STORAGE                          
                 WEL =       28113.7694                   WEL =         517.5183     RIV_CORR                         
                 DRN =           0.0000                   DRN =           0.0000     DRN_SYS1                         
                 RIV =       20685.4602                   RIV =         431.8238     RIV_SYS1                         
                 RIV =           0.0000                   RIV =           0.0000     RIV_SYS2                         
                 RCH =       88656.7186                   RCH =        1407.9659     RCH_MSW                          

            TOTAL IN =      187655.1593              TOTAL IN =        3349.9633

          OUT:                                     OUT:
          ----                                     ----
              STO-SS =       37049.0670                STO-SS =          76.2921     STORAGE                          
                 WEL =       55367.2407                   WEL =        1070.6409     RIV_CORR                         
                 DRN =        9698.8216                   DRN =         281.8935     DRN_SYS1                         
                 RIV =       45518.5263                   RIV =        1164.9293     RIV_SYS1                         
                 RIV =       26465.7437                   RIV =         756.1923     RIV_SYS2                         
                 RCH =       13555.8770                   RCH =           0.0000     RCH_MSW                          

           TOTAL OUT =      187655.2763             TOTAL OUT =        3349.9480

            IN - OUT =          -0.1170              IN - OUT =       1.5306E-02

 PERCENT DISCREPANCY =          -0.00     PERCENT DISCREPANCY =           0.00




         TIME SUMMARY AT END OF TIME STEP    1 IN STRESS PERIOD   34
                    SECONDS     MINUTES      HOURS       DAYS        YEARS
                    -----------------------------------------------------------
   TIME STEP LENGTH  86400.      1440.0      24.000      1.0000     2.73785E-03
 STRESS PERIOD TIME  86400.      1440.0      24.000      1.0000     2.73785E-03
         TOTAL TIME 2.93760E+06  48960.      816.00      34.000     9.30869E-02


end timestep


start timestep kper="35" kstp="1" mode="normal"

 #Stressperiod Save Options

 BEGIN READING OUTPUT CONTROL FOR STRESS PERIOD 35
      ALL TIME STEPS WILL BE SAVED
      ALL TIME STEPS WILL BE SAVED

 END READING OUTPUT CONTROL FOR STRESS PERIOD 35


 PROCESSING STORAGE PERIOD DATA
 END PROCESSING STORAGE PERIOD DATA


 STRESS PERIOD 35 IS TRANSIENT


 REUSING WELS FROM LAST STRESS PERIOD

 REUSING DRNS FROM LAST STRESS PERIOD

 REUSING RIVS FROM LAST STRESS PERIOD

 REUSING RIVS FROM LAST STRESS PERIOD

 REUSING RCHS FROM LAST STRESS PERIOD
 UBDSV06 SAVING              DRN IN MODEL GWF_1            PACKAGE GWF_1           CONNECTED TO MODEL GWF_1            PACKAGE DRN_SYS1         ON UNIT   1019 AT TIME STEP      1, STRESS PERIOD     35
 UBDSV06 SAVING              RIV IN MODEL GWF_1            PACKAGE GWF_1           CONNECTED TO MODEL GWF_1            PACKAGE RIV_SYS1         ON UNIT   1019 AT TIME STEP      1, STRESS PERIOD     35
 UBDSV06 SAVING              RIV IN MODEL GWF_1            PACKAGE GWF_1           CONNECTED TO MODEL GWF_1            PACKAGE RIV_SYS2         ON UNIT   1019 AT TIME STEP      1, STRESS PERIOD     35

 HEAD WILL BE SAVED ON UNIT 1018 AT END OF TIME STEP    1, STRESS PERIOD   35


  VOLUME BUDGET FOR ENTIRE MODEL AT END OF TIME STEP    1, STRESS PERIOD  35
  ---------------------------------------------------------------------------------------------------

     CUMULATIVE VOLUME      L**3       RATES FOR THIS TIME STEP      L**3/T          PACKAGE NAME    
     ------------------                 ------------------------                     ----------------

           IN:                                      IN:
           ---                                      ---
              STO-SS =       51447.5913                STO-SS =        1248.3802     STORAGE                          
                 WEL =       28545.5933                   WEL =         431.8238     RIV_CORR                         
                 DRN =           0.0000                   DRN =           0.0000     DRN_SYS1                         
                 RIV =       21225.6431                   RIV =         540.1828     RIV_SYS1                         
                 RIV =           0.0000                   RIV =           0.0000     RIV_SYS2                         
                 RCH =       89649.4291                   RCH =         992.7105     RCH_MSW                          

            TOTAL IN =      190868.2567              TOTAL IN =        3213.0974

          OUT:                                     OUT:
          ----                                     ----
              STO-SS =       37049.0670                STO-SS =           0.0000     STORAGE                          
                 WEL =       56532.1699                   WEL =        1164.9293     RIV_CORR                         
                 DRN =        9978.5032                   DRN =         279.6815     DRN_SYS1                         
                 RIV =       46536.8603                   RIV =        1018.3340     RIV_SYS1                         
                 RIV =       27215.8989                   RIV =         750.1552     RIV_SYS2                         
                 RCH =       13555.8770                   RCH =           0.0000     RCH_MSW                          

           TOTAL OUT =      190868.3763             TOTAL OUT =        3213.1000

            IN - OUT =          -0.1196              IN - OUT =      -2.5887E-03

 PERCENT DISCREPANCY =          -0.00     PERCENT DISCREPANCY =          -0.00




         TIME SUMMARY AT END OF TIME STEP    1 IN STRESS PERIOD   35
                    SECONDS     MINUTES      HOURS       DAYS        YEARS
                    -----------------------------------------------------------
   TIME STEP LENGTH  86400.      1440.0      24.000      1.0000     2.73785E-03
 STRESS PERIOD TIME  86400.      1440.0      24.000      1.0000     2.73785E-03
         TOTAL TIME 3.02400E+06  50400.      840.00      35.000     9.58248E-02


end timestep


start timestep kper="36" kstp="1" mode="normal"

 #Stressperiod Save Options

 BEGIN READING OUTPUT CONTROL FOR STRESS PERIOD 36
      ALL TIME STEPS WILL BE SAVED
      ALL TIME STEPS WILL BE SAVED

 END READING OUTPUT CONTROL FOR STRESS PERIOD 36


 PROCESSING STORAGE PERIOD DATA
 END PROCESSING STORAGE PERIOD DATA


 STRESS PERIOD 36 IS TRANSIENT


 REUSING WELS FROM LAST STRESS PERIOD

 REUSING DRNS FROM LAST STRESS PERIOD

 REUSING RIVS FROM LAST STRESS PERIOD

 REUSING RIVS FROM LAST STRESS PERIOD

 REUSING RCHS FROM LAST STRESS PERIOD
 UBDSV06 SAVING              DRN IN MODEL GWF_1            PACKAGE GWF_1           CONNECTED TO MODEL GWF_1            PACKAGE DRN_SYS1         ON UNIT   1019 AT TIME STEP      1, STRESS PERIOD     36
 UBDSV06 SAVING              RIV IN MODEL GWF_1            PACKAGE GWF_1           CONNECTED TO MODEL GWF_1            PACKAGE RIV_SYS1         ON UNIT   1019 AT TIME STEP      1, STRESS PERIOD     36
 UBDSV06 SAVING              RIV IN MODEL GWF_1            PACKAGE GWF_1           CONNECTED TO MODEL GWF_1            PACKAGE RIV_SYS2         ON UNIT   1019 AT TIME STEP      1, STRESS PERIOD     36

 HEAD WILL BE SAVED ON UNIT 1018 AT END OF TIME STEP    1, STRESS PERIOD   36


  VOLUME BUDGET FOR ENTIRE MODEL AT END OF TIME STEP    1, STRESS PERIOD  36
  ---------------------------------------------------------------------------------------------------

     CUMULATIVE VOLUME      L**3       RATES FOR THIS TIME STEP      L**3/T          PACKAGE NAME    
     ------------------                 ------------------------                     ----------------

           IN:                                      IN:
           ---                                      ---
              STO-SS =       52652.0399                STO-SS =        1204.4486     STORAGE                          
                 WEL =       29085.7761                   WEL =         540.1828     RIV_CORR                         
                 DRN =           0.0000                   DRN =           0.0000     DRN_SYS1                         
                 RIV =       21746.0774                   RIV =         520.4343     RIV_SYS1                         
                 RIV =           0.0000                   RIV =           0.0000     RIV_SYS2                         
                 RCH =       90445.4058                   RCH =         795.9767     RCH_MSW                          

            TOTAL IN =      193929.2991              TOTAL IN =        3061.0424

          OUT:                                     OUT:
          ----                                     ----
              STO-SS =       37056.3444                STO-SS =           7.2774     STORAGE                          
                 WEL =       57550.5039                   WEL =        1018.3340     RIV_CORR                         
                 DRN =       10255.8667                   DRN =         277.3635     DRN_SYS1                         
                 RIV =       47536.7666                   RIV =         999.9063     RIV_SYS1                         
                 RIV =       27959.8762                   RIV =         743.9773     RIV_SYS2                         
                 RCH =       13570.1029                   RCH =          14.2259     RCH_MSW                          

           TOTAL OUT =      193929.4607             TOTAL OUT =        3061.0844

            IN - OUT =          -0.1616              IN - OUT =      -4.2036E-02

 PERCENT DISCREPANCY =          -0.00     PERCENT DISCREPANCY =          -0.00




         TIME SUMMARY AT END OF TIME STEP    1 IN STRESS PERIOD   36
                    SECONDS     MINUTES      HOURS       DAYS        YEARS
                    -----------------------------------------------------------
   TIME STEP LENGTH  86400.      1440.0      24.000      1.0000     2.73785E-03
 STRESS PERIOD TIME  86400.      1440.0      24.000      1.0000     2.73785E-03
         TOTAL TIME 3.11040E+06  51840.      864.00      36.000     9.85626E-02


end timestep


start timestep kper="37" kstp="1" mode="normal"

 #Stressperiod Save Options

 BEGIN READING OUTPUT CONTROL FOR STRESS PERIOD 37
      ALL TIME STEPS WILL BE SAVED
      ALL TIME STEPS WILL BE SAVED

 END READING OUTPUT CONTROL FOR STRESS PERIOD 37


 PROCESSING STORAGE PERIOD DATA
 END PROCESSING STORAGE PERIOD DATA


 STRESS PERIOD 37 IS TRANSIENT


 REUSING WELS FROM LAST STRESS PERIOD

 REUSING DRNS FROM LAST STRESS PERIOD

 REUSING RIVS FROM LAST STRESS PERIOD

 REUSING RIVS FROM LAST STRESS PERIOD

 REUSING RCHS FROM LAST STRESS PERIOD
 UBDSV06 SAVING              DRN IN MODEL GWF_1            PACKAGE GWF_1           CONNECTED TO MODEL GWF_1            PACKAGE DRN_SYS1         ON UNIT   1019 AT TIME STEP      1, STRESS PERIOD     37
 UBDSV06 SAVING              RIV IN MODEL GWF_1            PACKAGE GWF_1           CONNECTED TO MODEL GWF_1            PACKAGE RIV_SYS1         ON UNIT   1019 AT TIME STEP      1, STRESS PERIOD     37
 UBDSV06 SAVING              RIV IN MODEL GWF_1            PACKAGE GWF_1           CONNECTED TO MODEL GWF_1            PACKAGE RIV_SYS2         ON UNIT   1019 AT TIME STEP      1, STRESS PERIOD     37

 HEAD WILL BE SAVED ON UNIT 1018 AT END OF TIME STEP    1, STRESS PERIOD   37


  VOLUME BUDGET FOR ENTIRE MODEL AT END OF TIME STEP    1, STRESS PERIOD  37
  ---------------------------------------------------------------------------------------------------

     CUMULATIVE VOLUME      L**3       RATES FOR THIS TIME STEP      L**3/T          PACKAGE NAME    
     ------------------                 ------------------------                     ----------------

           IN:                                      IN:
           ---                                      ---
              STO-SS =       53908.8231                STO-SS =        1256.7833     STORAGE                          
                 WEL =       29606.2104                   WEL =         520.4343     RIV_CORR                         
                 DRN =           0.0000                   DRN =           0.0000     DRN_SYS1                         
                 RIV =       22327.7626                   RIV =         581.6852     RIV_SYS1                         
                 RIV =           0.0000                   RIV =           0.0000     RIV_SYS2                         
                 RCH =       91097.3174                   RCH =         651.9117     RCH_MSW                          

            TOTAL IN =      196940.1136              TOTAL IN =        3010.8145

          OUT:                                     OUT:
          ----                                     ----
              STO-SS =       37056.3444                STO-SS =           0.0000     STORAGE                          
                 WEL =       58550.4103                   WEL =         999.9063     RIV_CORR                         
                 DRN =       10530.8465                   DRN =         274.9798     DRN_SYS1                         
                 RIV =       48496.2863                   RIV =         959.5197     RIV_SYS1                         
                 RIV =       28697.5700                   RIV =         737.6938     RIV_SYS2                         
                 RCH =       13608.7886                   RCH =          38.6857     RCH_MSW                          

           TOTAL OUT =      196940.2460             TOTAL OUT =        3010.7853

            IN - OUT =          -0.1324              IN - OUT =       2.9208E-02

 PERCENT DISCREPANCY =          -0.00     PERCENT DISCREPANCY =           0.00




         TIME SUMMARY AT END OF TIME STEP    1 IN STRESS PERIOD   37
                    SECONDS     MINUTES      HOURS       DAYS        YEARS
                    -----------------------------------------------------------
   TIME STEP LENGTH  86400.      1440.0      24.000      1.0000     2.73785E-03
 STRESS PERIOD TIME  86400.      1440.0      24.000      1.0000     2.73785E-03
         TOTAL TIME 3.19680E+06  53280.      888.00      37.000     0.10130    


end timestep


start timestep kper="38" kstp="1" mode="normal"

 #Stressperiod Save Options

 BEGIN READING OUTPUT CONTROL FOR STRESS PERIOD 38
      ALL TIME STEPS WILL BE SAVED
      ALL TIME STEPS WILL BE SAVED

 END READING OUTPUT CONTROL FOR STRESS PERIOD 38


 PROCESSING STORAGE PERIOD DATA
 END PROCESSING STORAGE PERIOD DATA


 STRESS PERIOD 38 IS TRANSIENT


 REUSING WELS FROM LAST STRESS PERIOD

 REUSING DRNS FROM LAST STRESS PERIOD

 REUSING RIVS FROM LAST STRESS PERIOD

 REUSING RIVS FROM LAST STRESS PERIOD

 REUSING RCHS FROM LAST STRESS PERIOD
 UBDSV06 SAVING              DRN IN MODEL GWF_1            PACKAGE GWF_1           CONNECTED TO MODEL GWF_1            PACKAGE DRN_SYS1         ON UNIT   1019 AT TIME STEP      1, STRESS PERIOD     38
 UBDSV06 SAVING              RIV IN MODEL GWF_1            PACKAGE GWF_1           CONNECTED TO MODEL GWF_1            PACKAGE RIV_SYS1         ON UNIT   1019 AT TIME STEP      1, STRESS PERIOD     38
 UBDSV06 SAVING              RIV IN MODEL GWF_1            PACKAGE GWF_1           CONNECTED TO MODEL GWF_1            PACKAGE RIV_SYS2         ON UNIT   1019 AT TIME STEP      1, STRESS PERIOD     38

 HEAD WILL BE SAVED ON UNIT 1018 AT END OF TIME STEP    1, STRESS PERIOD   38


  VOLUME BUDGET FOR ENTIRE MODEL AT END OF TIME STEP    1, STRESS PERIOD  38
  ---------------------------------------------------------------------------------------------------

     CUMULATIVE VOLUME      L**3       RATES FOR THIS TIME STEP      L**3/T          PACKAGE NAME    
     ------------------                 ------------------------                     ----------------

           IN:                                      IN:
           ---                                      ---
              STO-SS =       54913.8290                STO-SS =        1005.0059     STORAGE                          
                 WEL =       30187.8956                   WEL =         581.6852     RIV_CORR                         
                 DRN =           0.0000                   DRN =           0.0000     DRN_SYS1                         
                 RIV =       22844.2318                   RIV =         516.4692     RIV_SYS1                         
                 RIV =           0.0000                   RIV =           0.0000     RIV_SYS2                         
                 RCH =       91984.7124                   RCH =         887.3949     RCH_MSW                          

            TOTAL IN =      199930.6688              TOTAL IN =        2990.5552

          OUT:                                     OUT:
          ----                                     ----
              STO-SS =       37098.6923                STO-SS =          42.3479     STORAGE                          
                 WEL =       59509.9300                   WEL =         959.5197     RIV_CORR                         
                 DRN =       10803.7596                   DRN =         272.9132     DRN_SYS1                         
                 RIV =       49479.8947                   RIV =         983.6084     RIV_SYS1                         
                 RIV =       29429.7220                   RIV =         732.1520     RIV_SYS2                         
                 RCH =       13608.7886                   RCH =           0.0000     RCH_MSW                          

           TOTAL OUT =      199930.7872             TOTAL OUT =        2990.5412

            IN - OUT =          -0.1185              IN - OUT =       1.3959E-02

 PERCENT DISCREPANCY =          -0.00     PERCENT DISCREPANCY =           0.00




         TIME SUMMARY AT END OF TIME STEP    1 IN STRESS PERIOD   38
                    SECONDS     MINUTES      HOURS       DAYS        YEARS
                    -----------------------------------------------------------
   TIME STEP LENGTH  86400.      1440.0      24.000      1.0000     2.73785E-03
 STRESS PERIOD TIME  86400.      1440.0      24.000      1.0000     2.73785E-03
         TOTAL TIME 3.28320E+06  54720.      912.00      38.000     0.10404    


end timestep


start timestep kper="39" kstp="1" mode="normal"

 #Stressperiod Save Options

 BEGIN READING OUTPUT CONTROL FOR STRESS PERIOD 39
      ALL TIME STEPS WILL BE SAVED
      ALL TIME STEPS WILL BE SAVED

 END READING OUTPUT CONTROL FOR STRESS PERIOD 39


 PROCESSING STORAGE PERIOD DATA
 END PROCESSING STORAGE PERIOD DATA


 STRESS PERIOD 39 IS TRANSIENT


 REUSING WELS FROM LAST STRESS PERIOD

 REUSING DRNS FROM LAST STRESS PERIOD

 REUSING RIVS FROM LAST STRESS PERIOD

 REUSING RIVS FROM LAST STRESS PERIOD

 REUSING RCHS FROM LAST STRESS PERIOD
 UBDSV06 SAVING              DRN IN MODEL GWF_1            PACKAGE GWF_1           CONNECTED TO MODEL GWF_1            PACKAGE DRN_SYS1         ON UNIT   1019 AT TIME STEP      1, STRESS PERIOD     39
 UBDSV06 SAVING              RIV IN MODEL GWF_1            PACKAGE GWF_1           CONNECTED TO MODEL GWF_1            PACKAGE RIV_SYS1         ON UNIT   1019 AT TIME STEP      1, STRESS PERIOD     39
 UBDSV06 SAVING              RIV IN MODEL GWF_1            PACKAGE GWF_1           CONNECTED TO MODEL GWF_1            PACKAGE RIV_SYS2         ON UNIT   1019 AT TIME STEP      1, STRESS PERIOD     39

 HEAD WILL BE SAVED ON UNIT 1018 AT END OF TIME STEP    1, STRESS PERIOD   39


  VOLUME BUDGET FOR ENTIRE MODEL AT END OF TIME STEP    1, STRESS PERIOD  39
  ---------------------------------------------------------------------------------------------------

     CUMULATIVE VOLUME      L**3       RATES FOR THIS TIME STEP      L**3/T          PACKAGE NAME    
     ------------------                 ------------------------                     ----------------

           IN:                                      IN:
           ---                                      ---
              STO-SS =       56073.7426                STO-SS =        1159.9136     STORAGE                          
                 WEL =       30704.3648                   WEL =         516.4692     RIV_CORR                         
                 DRN =           0.0000                   DRN =           0.0000     DRN_SYS1                         
                 RIV =       23474.0948                   RIV =         629.8630     RIV_SYS1                         
                 RIV =           0.0000                   RIV =           0.0000     RIV_SYS2                         
                 RCH =       92590.0172                   RCH =         605.3049     RCH_MSW                          

            TOTAL IN =      202842.2194              TOTAL IN =        2911.5507

          OUT:                                     OUT:
          ----                                     ----
              STO-SS =       37098.6923                STO-SS =           0.0000     STORAGE                          
                 WEL =       60493.5384                   WEL =         983.6084     RIV_CORR                         
                 DRN =       11074.6001                   DRN =         270.8405     DRN_SYS1                         
                 RIV =       50404.4884                   RIV =         924.5936     RIV_SYS1                         
                 RIV =       30156.3788                   RIV =         726.6568     RIV_SYS2                         
                 RCH =       13614.6456                   RCH =           5.8570     RCH_MSW                          

           TOTAL OUT =      202842.3436             TOTAL OUT =        2911.5564

            IN - OUT =          -0.1242              IN - OUT =      -5.7527E-03

 PERCENT DISCREPANCY =          -0.00     PERCENT DISCREPANCY =          -0.00




         TIME SUMMARY AT END OF TIME STEP    1 IN STRESS PERIOD   39
                    SECONDS     MINUTES      HOURS       DAYS        YEARS
                    -----------------------------------------------------------
   TIME STEP LENGTH  86400.      1440.0      24.000      1.0000     2.73785E-03
 STRESS PERIOD TIME  86400.      1440.0      24.000      1.0000     2.73785E-03
         TOTAL TIME 3.36960E+06  56160.      936.00      39.000     0.10678    


end timestep


start timestep kper="40" kstp="1" mode="normal"

 #Stressperiod Save Options

 BEGIN READING OUTPUT CONTROL FOR STRESS PERIOD 40
      ALL TIME STEPS WILL BE SAVED
      ALL TIME STEPS WILL BE SAVED

 END READING OUTPUT CONTROL FOR STRESS PERIOD 40


 PROCESSING STORAGE PERIOD DATA
 END PROCESSING STORAGE PERIOD DATA


 STRESS PERIOD 40 IS TRANSIENT


 REUSING WELS FROM LAST STRESS PERIOD

 REUSING DRNS FROM LAST STRESS PERIOD

 REUSING RIVS FROM LAST STRESS PERIOD

 REUSING RIVS FROM LAST STRESS PERIOD

 REUSING RCHS FROM LAST STRESS PERIOD
 UBDSV06 SAVING              DRN IN MODEL GWF_1            PACKAGE GWF_1           CONNECTED TO MODEL GWF_1            PACKAGE DRN_SYS1         ON UNIT   1019 AT TIME STEP      1, STRESS PERIOD     40
 UBDSV06 SAVING              RIV IN MODEL GWF_1            PACKAGE GWF_1           CONNECTED TO MODEL GWF_1            PACKAGE RIV_SYS1         ON UNIT   1019 AT TIME STEP      1, STRESS PERIOD     40
 UBDSV06 SAVING              RIV IN MODEL GWF_1            PACKAGE GWF_1           CONNECTED TO MODEL GWF_1            PACKAGE RIV_SYS2         ON UNIT   1019 AT TIME STEP      1, STRESS PERIOD     40

 HEAD WILL BE SAVED ON UNIT 1018 AT END OF TIME STEP    1, STRESS PERIOD   40


  VOLUME BUDGET FOR ENTIRE MODEL AT END OF TIME STEP    1, STRESS PERIOD  40
  ---------------------------------------------------------------------------------------------------

     CUMULATIVE VOLUME      L**3       RATES FOR THIS TIME STEP      L**3/T          PACKAGE NAME    
     ------------------                 ------------------------                     ----------------

           IN:                                      IN:
           ---                                      ---
              STO-SS =       57062.1469                STO-SS =         988.4044     STORAGE                          
                 WEL =       31334.2278                   WEL =         629.8630     RIV_CORR                         
                 DRN =           0.0000                   DRN =           0.0000     DRN_SYS1                         
                 RIV =       24062.2940                   RIV =         588.1992     RIV_SYS1                         
                 RIV =           0.0000                   RIV =           0.0000     RIV_SYS2                         
                 RCH =       93236.1324                   RCH =         646.1151     RCH_MSW                          

            TOTAL IN =      205694.8011              TOTAL IN =        2852.5817

          OUT:                                     OUT:
          ----                                     ----
              STO-SS =       37111.8219                STO-SS =          13.1296     STORAGE                          
                 WEL =       61418.1320                   WEL =         924.5936     RIV_CORR                         
                 DRN =       11343.5323                   DRN =         268.9322     DRN_SYS1                         
                 RIV =       51328.8725                   RIV =         924.3841     RIV_SYS1                         
                 RIV =       30877.9277                   RIV =         721.5488     RIV_SYS2                         
                 RCH =       13614.6456                   RCH =           0.0000     RCH_MSW                          

           TOTAL OUT =      205694.9320             TOTAL OUT =        2852.5884

            IN - OUT =          -0.1309              IN - OUT =      -6.7057E-03

 PERCENT DISCREPANCY =          -0.00     PERCENT DISCREPANCY =          -0.00




         TIME SUMMARY AT END OF TIME STEP    1 IN STRESS PERIOD   40
                    SECONDS     MINUTES      HOURS       DAYS        YEARS
                    -----------------------------------------------------------
   TIME STEP LENGTH  86400.      1440.0      24.000      1.0000     2.73785E-03
 STRESS PERIOD TIME  86400.      1440.0      24.000      1.0000     2.73785E-03
         TOTAL TIME 3.45600E+06  57600.      960.00      40.000     0.10951    


end timestep


start timestep kper="41" kstp="1" mode="normal"

 #Stressperiod Save Options

 BEGIN READING OUTPUT CONTROL FOR STRESS PERIOD 41
      ALL TIME STEPS WILL BE SAVED
      ALL TIME STEPS WILL BE SAVED

 END READING OUTPUT CONTROL FOR STRESS PERIOD 41


 PROCESSING STORAGE PERIOD DATA
 END PROCESSING STORAGE PERIOD DATA


 STRESS PERIOD 41 IS TRANSIENT


 REUSING WELS FROM LAST STRESS PERIOD

 REUSING DRNS FROM LAST STRESS PERIOD

 REUSING RIVS FROM LAST STRESS PERIOD

 REUSING RIVS FROM LAST STRESS PERIOD

 REUSING RCHS FROM LAST STRESS PERIOD
 UBDSV06 SAVING              DRN IN MODEL GWF_1            PACKAGE GWF_1           CONNECTED TO MODEL GWF_1            PACKAGE DRN_SYS1         ON UNIT   1019 AT TIME STEP      1, STRESS PERIOD     41
 UBDSV06 SAVING              RIV IN MODEL GWF_1            PACKAGE GWF_1           CONNECTED TO MODEL GWF_1            PACKAGE RIV_SYS1         ON UNIT   1019 AT TIME STEP      1, STRESS PERIOD     41
 UBDSV06 SAVING              RIV IN MODEL GWF_1            PACKAGE GWF_1           CONNECTED TO MODEL GWF_1            PACKAGE RIV_SYS2         ON UNIT   1019 AT TIME STEP      1, STRESS PERIOD     41

 HEAD WILL BE SAVED ON UNIT 1018 AT END OF TIME STEP    1, STRESS PERIOD   41


  VOLUME BUDGET FOR ENTIRE MODEL AT END OF TIME STEP    1, STRESS PERIOD  41
  ---------------------------------------------------------------------------------------------------

     CUMULATIVE VOLUME      L**3       RATES FOR THIS TIME STEP      L**3/T          PACKAGE NAME    
     ------------------                 ------------------------                     ----------------

           IN:                                      IN:
           ---                                      ---
              STO-SS =       57828.0476                STO-SS =         765.9007     STORAGE                          
                 WEL =       31922.4270                   WEL =         588.1992     RIV_CORR                         
                 DRN =           0.0000                   DRN =           0.0000     DRN_SYS1                         
                 RIV =       24595.4805                   RIV =         533.1866     RIV_SYS1                         
                 RIV =           0.0000                   RIV =           0.0000     RIV_SYS2                         
                 RCH =       94289.8977                   RCH =        1053.7654     RCH_MSW                          

            TOTAL IN =      208635.8529              TOTAL IN =        2941.0518

          OUT:                                     OUT:
          ----                                     ----
              STO-SS =       37188.4235                STO-SS =          76.6015     STORAGE                          
                 WEL =       62342.5162                   WEL =         924.3841     RIV_CORR                         
                 DRN =       11610.9312                   DRN =         267.3989     DRN_SYS1                         
                 RIV =       52284.0507                   RIV =         955.1782     RIV_SYS1                         
                 RIV =       31595.3876                   RIV =         717.4599     RIV_SYS2                         
                 RCH =       13614.6456                   RCH =           0.0000     RCH_MSW                          

           TOTAL OUT =      208635.9547             TOTAL OUT =        2941.0227

            IN - OUT =          -0.1018              IN - OUT =       2.9105E-02

 PERCENT DISCREPANCY =          -0.00     PERCENT DISCREPANCY =           0.00




         TIME SUMMARY AT END OF TIME STEP    1 IN STRESS PERIOD   41
                    SECONDS     MINUTES      HOURS       DAYS        YEARS
                    -----------------------------------------------------------
   TIME STEP LENGTH  86400.      1440.0      24.000      1.0000     2.73785E-03
 STRESS PERIOD TIME  86400.      1440.0      24.000      1.0000     2.73785E-03
         TOTAL TIME 3.54240E+06  59040.      984.00      41.000     0.11225    


end timestep


start timestep kper="42" kstp="1" mode="normal"

 #Stressperiod Save Options

 BEGIN READING OUTPUT CONTROL FOR STRESS PERIOD 42
      ALL TIME STEPS WILL BE SAVED
      ALL TIME STEPS WILL BE SAVED

 END READING OUTPUT CONTROL FOR STRESS PERIOD 42


 PROCESSING STORAGE PERIOD DATA
 END PROCESSING STORAGE PERIOD DATA


 STRESS PERIOD 42 IS TRANSIENT


 REUSING WELS FROM LAST STRESS PERIOD

 REUSING DRNS FROM LAST STRESS PERIOD

 REUSING RIVS FROM LAST STRESS PERIOD

 REUSING RIVS FROM LAST STRESS PERIOD

 REUSING RCHS FROM LAST STRESS PERIOD
 UBDSV06 SAVING              DRN IN MODEL GWF_1            PACKAGE GWF_1           CONNECTED TO MODEL GWF_1            PACKAGE DRN_SYS1         ON UNIT   1019 AT TIME STEP      1, STRESS PERIOD     42
 UBDSV06 SAVING              RIV IN MODEL GWF_1            PACKAGE GWF_1           CONNECTED TO MODEL GWF_1            PACKAGE RIV_SYS1         ON UNIT   1019 AT TIME STEP      1, STRESS PERIOD     42
 UBDSV06 SAVING              RIV IN MODEL GWF_1            PACKAGE GWF_1           CONNECTED TO MODEL GWF_1            PACKAGE RIV_SYS2         ON UNIT   1019 AT TIME STEP      1, STRESS PERIOD     42

 HEAD WILL BE SAVED ON UNIT 1018 AT END OF TIME STEP    1, STRESS PERIOD   42


  VOLUME BUDGET FOR ENTIRE MODEL AT END OF TIME STEP    1, STRESS PERIOD  42
  ---------------------------------------------------------------------------------------------------

     CUMULATIVE VOLUME      L**3       RATES FOR THIS TIME STEP      L**3/T          PACKAGE NAME    
     ------------------                 ------------------------                     ----------------

           IN:                                      IN:
           ---                                      ---
              STO-SS =       58763.5227                STO-SS =         935.4751     STORAGE                          
                 WEL =       32455.6136                   WEL =         533.1866     RIV_CORR                         
                 DRN =           0.0000                   DRN =           0.0000     DRN_SYS1                         
                 RIV =       25263.2440                   RIV =         667.7634     RIV_SYS1                         
                 RIV =           0.0000                   RIV =           0.0000     RIV_SYS2                         
                 RCH =       94980.8777                   RCH =         690.9800     RCH_MSW                          

            TOTAL IN =      211463.2580              TOTAL IN =        2827.4051

          OUT:                                     OUT:
          ----                                     ----
              STO-SS =       37188.4235                STO-SS =           0.0000     STORAGE                          
                 WEL =       63297.6944                   WEL =         955.1782     RIV_CORR                         
                 DRN =       11876.7983                   DRN =         265.8671     DRN_SYS1                         
                 RIV =       53177.1095                   RIV =         893.0588     RIV_SYS1                         
                 RIV =       32308.7363                   RIV =         713.3487     RIV_SYS2                         
                 RCH =       13614.7027                   RCH =       5.7157E-02     RCH_MSW                          

           TOTAL OUT =      211463.4647             TOTAL OUT =        2827.5100

            IN - OUT =          -0.2067              IN - OUT =          -0.1049

 PERCENT DISCREPANCY =          -0.00     PERCENT DISCREPANCY =          -0.00




         TIME SUMMARY AT END OF TIME STEP    1 IN STRESS PERIOD   42
                    SECONDS     MINUTES      HOURS       DAYS        YEARS
                    -----------------------------------------------------------
   TIME STEP LENGTH  86400.      1440.0      24.000      1.0000     2.73785E-03
 STRESS PERIOD TIME  86400.      1440.0      24.000      1.0000     2.73785E-03
         TOTAL TIME 3.62880E+06  60480.      1008.0      42.000     0.11499    


end timestep


start timestep kper="43" kstp="1" mode="normal"

 #Stressperiod Save Options

 BEGIN READING OUTPUT CONTROL FOR STRESS PERIOD 43
      ALL TIME STEPS WILL BE SAVED
      ALL TIME STEPS WILL BE SAVED

 END READING OUTPUT CONTROL FOR STRESS PERIOD 43


 PROCESSING STORAGE PERIOD DATA
 END PROCESSING STORAGE PERIOD DATA


 STRESS PERIOD 43 IS TRANSIENT


 REUSING WELS FROM LAST STRESS PERIOD

 REUSING DRNS FROM LAST STRESS PERIOD

 REUSING RIVS FROM LAST STRESS PERIOD

 REUSING RIVS FROM LAST STRESS PERIOD

 REUSING RCHS FROM LAST STRESS PERIOD
 UBDSV06 SAVING              DRN IN MODEL GWF_1            PACKAGE GWF_1           CONNECTED TO MODEL GWF_1            PACKAGE DRN_SYS1         ON UNIT   1019 AT TIME STEP      1, STRESS PERIOD     43
 UBDSV06 SAVING              RIV IN MODEL GWF_1            PACKAGE GWF_1           CONNECTED TO MODEL GWF_1            PACKAGE RIV_SYS1         ON UNIT   1019 AT TIME STEP      1, STRESS PERIOD     43
 UBDSV06 SAVING              RIV IN MODEL GWF_1            PACKAGE GWF_1           CONNECTED TO MODEL GWF_1            PACKAGE RIV_SYS2         ON UNIT   1019 AT TIME STEP      1, STRESS PERIOD     43

 HEAD WILL BE SAVED ON UNIT 1018 AT END OF TIME STEP    1, STRESS PERIOD   43


  VOLUME BUDGET FOR ENTIRE MODEL AT END OF TIME STEP    1, STRESS PERIOD  43
  ---------------------------------------------------------------------------------------------------

     CUMULATIVE VOLUME      L**3       RATES FOR THIS TIME STEP      L**3/T          PACKAGE NAME    
     ------------------                 ------------------------                     ----------------

           IN:                                      IN:
           ---                                      ---
              STO-SS =       59666.4697                STO-SS =         902.9470     STORAGE                          
                 WEL =       33123.3770                   WEL =         667.7634     RIV_CORR                         
                 DRN =           0.0000                   DRN =           0.0000     DRN_SYS1                         
                 RIV =       25924.1493                   RIV =         660.9053     RIV_SYS1                         
                 RIV =           0.0000                   RIV =           0.0000     RIV_SYS2                         
                 RCH =       95532.6682                   RCH =         551.7905     RCH_MSW                          

            TOTAL IN =      214246.6642              TOTAL IN =        2783.4062

          OUT:                                     OUT:
          ----                                     ----
              STO-SS =       37191.5669                STO-SS =           3.1434     STORAGE                          
                 WEL =       64190.7531                   WEL =         893.0588     RIV_CORR                         
                 DRN =       12141.0590                   DRN =         264.2607     DRN_SYS1                         
                 RIV =       54055.0274                   RIV =         877.9179     RIV_SYS1                         
                 RIV =       33017.8835                   RIV =         709.1472     RIV_SYS2                         
                 RCH =       13650.5875                   RCH =          35.8848     RCH_MSW                          

           TOTAL OUT =      214246.8775             TOTAL OUT =        2783.4128

            IN - OUT =          -0.2133              IN - OUT =      -6.6043E-03

 PERCENT DISCREPANCY =          -0.00     PERCENT DISCREPANCY =          -0.00




         TIME SUMMARY AT END OF TIME STEP    1 IN STRESS PERIOD   43
                    SECONDS     MINUTES      HOURS       DAYS        YEARS
                    -----------------------------------------------------------
   TIME STEP LENGTH  86400.      1440.0      24.000      1.0000     2.73785E-03
 STRESS PERIOD TIME  86400.      1440.0      24.000      1.0000     2.73785E-03
         TOTAL TIME 3.71520E+06  61920.      1032.0      43.000     0.11773    


end timestep


start timestep kper="44" kstp="1" mode="normal"

 #Stressperiod Save Options

 BEGIN READING OUTPUT CONTROL FOR STRESS PERIOD 44
      ALL TIME STEPS WILL BE SAVED
      ALL TIME STEPS WILL BE SAVED

 END READING OUTPUT CONTROL FOR STRESS PERIOD 44


 PROCESSING STORAGE PERIOD DATA
 END PROCESSING STORAGE PERIOD DATA


 STRESS PERIOD 44 IS TRANSIENT


 REUSING WELS FROM LAST STRESS PERIOD

 REUSING DRNS FROM LAST STRESS PERIOD

 REUSING RIVS FROM LAST STRESS PERIOD

 REUSING RIVS FROM LAST STRESS PERIOD

 REUSING RCHS FROM LAST STRESS PERIOD
 UBDSV06 SAVING              DRN IN MODEL GWF_1            PACKAGE GWF_1           CONNECTED TO MODEL GWF_1            PACKAGE DRN_SYS1         ON UNIT   1019 AT TIME STEP      1, STRESS PERIOD     44
 UBDSV06 SAVING              RIV IN MODEL GWF_1            PACKAGE GWF_1           CONNECTED TO MODEL GWF_1            PACKAGE RIV_SYS1         ON UNIT   1019 AT TIME STEP      1, STRESS PERIOD     44
 UBDSV06 SAVING              RIV IN MODEL GWF_1            PACKAGE GWF_1           CONNECTED TO MODEL GWF_1            PACKAGE RIV_SYS2         ON UNIT   1019 AT TIME STEP      1, STRESS PERIOD     44

 HEAD WILL BE SAVED ON UNIT 1018 AT END OF TIME STEP    1, STRESS PERIOD   44


  VOLUME BUDGET FOR ENTIRE MODEL AT END OF TIME STEP    1, STRESS PERIOD  44
  ---------------------------------------------------------------------------------------------------

     CUMULATIVE VOLUME      L**3       RATES FOR THIS TIME STEP      L**3/T          PACKAGE NAME    
     ------------------                 ------------------------                     ----------------

           IN:                                      IN:
           ---                                      ---
              STO-SS =       60607.9317                STO-SS =         941.4620     STORAGE                          
                 WEL =       33784.2823                   WEL =         660.9053     RIV_CORR                         
                 DRN =           0.0000                   DRN =           0.0000     DRN_SYS1                         
                 RIV =       26645.8688                   RIV =         721.7195     RIV_SYS1                         
                 RIV =           0.0000                   RIV =           0.0000     RIV_SYS2                         
                 RCH =       95987.2371                   RCH =         454.5689     RCH_MSW                          

            TOTAL IN =      217025.3199              TOTAL IN =        2778.6557

          OUT:                                     OUT:
          ----                                     ----
              STO-SS =       37191.5669                STO-SS =           0.0000     STORAGE                          
                 WEL =       65068.6710                   WEL =         877.9179     RIV_CORR                         
                 DRN =       12403.6377                   DRN =         262.5786     DRN_SYS1                         
                 RIV =       54917.4837                   RIV =         862.4563     RIV_SYS1                         
                 RIV =       33722.6955                   RIV =         704.8120     RIV_SYS2                         
                 RCH =       13721.5406                   RCH =          70.9530     RCH_MSW                          

           TOTAL OUT =      217025.5953             TOTAL OUT =        2778.7178

            IN - OUT =          -0.2754              IN - OUT =      -6.2106E-02

 PERCENT DISCREPANCY =          -0.00     PERCENT DISCREPANCY =          -0.00




         TIME SUMMARY AT END OF TIME STEP    1 IN STRESS PERIOD   44
                    SECONDS     MINUTES      HOURS       DAYS        YEARS
                    -----------------------------------------------------------
   TIME STEP LENGTH  86400.      1440.0      24.000      1.0000     2.73785E-03
 STRESS PERIOD TIME  86400.      1440.0      24.000      1.0000     2.73785E-03
         TOTAL TIME 3.80160E+06  63360.      1056.0      44.000     0.12047    


end timestep


start timestep kper="45" kstp="1" mode="normal"

 #Stressperiod Save Options

 BEGIN READING OUTPUT CONTROL FOR STRESS PERIOD 45
      ALL TIME STEPS WILL BE SAVED
      ALL TIME STEPS WILL BE SAVED

 END READING OUTPUT CONTROL FOR STRESS PERIOD 45


 PROCESSING STORAGE PERIOD DATA
 END PROCESSING STORAGE PERIOD DATA


 STRESS PERIOD 45 IS TRANSIENT


 REUSING WELS FROM LAST STRESS PERIOD

 REUSING DRNS FROM LAST STRESS PERIOD

 REUSING RIVS FROM LAST STRESS PERIOD

 REUSING RIVS FROM LAST STRESS PERIOD

 REUSING RCHS FROM LAST STRESS PERIOD
 UBDSV06 SAVING              DRN IN MODEL GWF_1            PACKAGE GWF_1           CONNECTED TO MODEL GWF_1            PACKAGE DRN_SYS1         ON UNIT   1019 AT TIME STEP      1, STRESS PERIOD     45
 UBDSV06 SAVING              RIV IN MODEL GWF_1            PACKAGE GWF_1           CONNECTED TO MODEL GWF_1            PACKAGE RIV_SYS1         ON UNIT   1019 AT TIME STEP      1, STRESS PERIOD     45
 UBDSV06 SAVING              RIV IN MODEL GWF_1            PACKAGE GWF_1           CONNECTED TO MODEL GWF_1            PACKAGE RIV_SYS2         ON UNIT   1019 AT TIME STEP      1, STRESS PERIOD     45

 HEAD WILL BE SAVED ON UNIT 1018 AT END OF TIME STEP    1, STRESS PERIOD   45


  VOLUME BUDGET FOR ENTIRE MODEL AT END OF TIME STEP    1, STRESS PERIOD  45
  ---------------------------------------------------------------------------------------------------

     CUMULATIVE VOLUME      L**3       RATES FOR THIS TIME STEP      L**3/T          PACKAGE NAME    
     ------------------                 ------------------------                     ----------------

           IN:                                      IN:
           ---                                      ---
              STO-SS =       61552.3411                STO-SS =         944.4093     STORAGE                          
                 WEL =       34506.0018                   WEL =         721.7195     RIV_CORR                         
                 DRN =           0.0000                   DRN =           0.0000     DRN_SYS1                         
                 RIV =       27399.1580                   RIV =         753.2893     RIV_SYS1                         
                 RIV =           0.0000                   RIV =           0.0000     RIV_SYS2                         
                 RCH =       96365.4936                   RCH =         378.2565     RCH_MSW                          

            TOTAL IN =      219822.9945              TOTAL IN =        2797.6746

          OUT:                                     OUT:
          ----                                     ----
              STO-SS =       37191.7573                STO-SS =           0.1904     STORAGE                          
                 WEL =       65931.1273                   WEL =         862.4563     RIV_CORR                         
                 DRN =       12664.4841                   DRN =         260.8464     DRN_SYS1                         
                 RIV =       55766.2860                   RIV =         848.8023     RIV_SYS1                         
                 RIV =       34423.0967                   RIV =         700.4012     RIV_SYS2                         
                 RCH =       13846.5507                   RCH =         125.0101     RCH_MSW                          

           TOTAL OUT =      219823.3021             TOTAL OUT =        2797.7068

            IN - OUT =          -0.3076              IN - OUT =      -3.2150E-02

 PERCENT DISCREPANCY =          -0.00     PERCENT DISCREPANCY =          -0.00




         TIME SUMMARY AT END OF TIME STEP    1 IN STRESS PERIOD   45
                    SECONDS     MINUTES      HOURS       DAYS        YEARS
                    -----------------------------------------------------------
   TIME STEP LENGTH  86400.      1440.0      24.000      1.0000     2.73785E-03
 STRESS PERIOD TIME  86400.      1440.0      24.000      1.0000     2.73785E-03
         TOTAL TIME 3.88800E+06  64800.      1080.0      45.000     0.12320    


end timestep


start timestep kper="46" kstp="1" mode="normal"

 #Stressperiod Save Options

 BEGIN READING OUTPUT CONTROL FOR STRESS PERIOD 46
      ALL TIME STEPS WILL BE SAVED
      ALL TIME STEPS WILL BE SAVED

 END READING OUTPUT CONTROL FOR STRESS PERIOD 46


 PROCESSING STORAGE PERIOD DATA
 END PROCESSING STORAGE PERIOD DATA


 STRESS PERIOD 46 IS TRANSIENT


 REUSING WELS FROM LAST STRESS PERIOD

 REUSING DRNS FROM LAST STRESS PERIOD

 REUSING RIVS FROM LAST STRESS PERIOD

 REUSING RIVS FROM LAST STRESS PERIOD

 REUSING RCHS FROM LAST STRESS PERIOD
 UBDSV06 SAVING              DRN IN MODEL GWF_1            PACKAGE GWF_1           CONNECTED TO MODEL GWF_1            PACKAGE DRN_SYS1         ON UNIT   1019 AT TIME STEP      1, STRESS PERIOD     46
 UBDSV06 SAVING              RIV IN MODEL GWF_1            PACKAGE GWF_1           CONNECTED TO MODEL GWF_1            PACKAGE RIV_SYS1         ON UNIT   1019 AT TIME STEP      1, STRESS PERIOD     46
 UBDSV06 SAVING              RIV IN MODEL GWF_1            PACKAGE GWF_1           CONNECTED TO MODEL GWF_1            PACKAGE RIV_SYS2         ON UNIT   1019 AT TIME STEP      1, STRESS PERIOD     46

 HEAD WILL BE SAVED ON UNIT 1018 AT END OF TIME STEP    1, STRESS PERIOD   46


  VOLUME BUDGET FOR ENTIRE MODEL AT END OF TIME STEP    1, STRESS PERIOD  46
  ---------------------------------------------------------------------------------------------------

     CUMULATIVE VOLUME      L**3       RATES FOR THIS TIME STEP      L**3/T          PACKAGE NAME    
     ------------------                 ------------------------                     ----------------

           IN:                                      IN:
           ---                                      ---
              STO-SS =       62468.5717                STO-SS =         916.2306     STORAGE                          
                 WEL =       35259.2911                   WEL =         753.2893     RIV_CORR                         
                 DRN =           0.0000                   DRN =           0.0000     DRN_SYS1                         
                 RIV =       28175.0770                   RIV =         775.9190     RIV_SYS1                         
                 RIV =           0.0000                   RIV =           0.0000     RIV_SYS2                         
                 RCH =       96684.8930                   RCH =         319.3994     RCH_MSW                          

            TOTAL IN =      222587.8328              TOTAL IN =        2764.8382

          OUT:                                     OUT:
          ----                                     ----
              STO-SS =       37191.7573                STO-SS =           0.0000     STORAGE                          
                 WEL =       66779.9296                   WEL =         848.8023     RIV_CORR                         
                 DRN =       12923.6088                   DRN =         259.1247     DRN_SYS1                         
                 RIV =       56603.8348                   RIV =         837.5488     RIV_SYS1                         
                 RIV =       35119.1364                   RIV =         696.0397     RIV_SYS2                         
                 RCH =       13969.8871                   RCH =         123.3364     RCH_MSW                          

           TOTAL OUT =      222588.1540             TOTAL OUT =        2764.8519

            IN - OUT =          -0.3212              IN - OUT =      -1.3663E-02

 PERCENT DISCREPANCY =          -0.00     PERCENT DISCREPANCY =          -0.00




         TIME SUMMARY AT END OF TIME STEP    1 IN STRESS PERIOD   46
                    SECONDS     MINUTES      HOURS       DAYS        YEARS
                    -----------------------------------------------------------
   TIME STEP LENGTH  86400.      1440.0      24.000      1.0000     2.73785E-03
 STRESS PERIOD TIME  86400.      1440.0      24.000      1.0000     2.73785E-03
         TOTAL TIME 3.97440E+06  66240.      1104.0      46.000     0.12594    


end timestep


start timestep kper="47" kstp="1" mode="normal"

 #Stressperiod Save Options

 BEGIN READING OUTPUT CONTROL FOR STRESS PERIOD 47
      ALL TIME STEPS WILL BE SAVED
      ALL TIME STEPS WILL BE SAVED

 END READING OUTPUT CONTROL FOR STRESS PERIOD 47


 PROCESSING STORAGE PERIOD DATA
 END PROCESSING STORAGE PERIOD DATA


 STRESS PERIOD 47 IS TRANSIENT


 REUSING WELS FROM LAST STRESS PERIOD

 REUSING DRNS FROM LAST STRESS PERIOD

 REUSING RIVS FROM LAST STRESS PERIOD

 REUSING RIVS FROM LAST STRESS PERIOD

 REUSING RCHS FROM LAST STRESS PERIOD
 UBDSV06 SAVING              DRN IN MODEL GWF_1            PACKAGE GWF_1           CONNECTED TO MODEL GWF_1            PACKAGE DRN_SYS1         ON UNIT   1019 AT TIME STEP      1, STRESS PERIOD     47
 UBDSV06 SAVING              RIV IN MODEL GWF_1            PACKAGE GWF_1           CONNECTED TO MODEL GWF_1            PACKAGE RIV_SYS1         ON UNIT   1019 AT TIME STEP      1, STRESS PERIOD     47
 UBDSV06 SAVING              RIV IN MODEL GWF_1            PACKAGE GWF_1           CONNECTED TO MODEL GWF_1            PACKAGE RIV_SYS2         ON UNIT   1019 AT TIME STEP      1, STRESS PERIOD     47

 HEAD WILL BE SAVED ON UNIT 1018 AT END OF TIME STEP    1, STRESS PERIOD   47


  VOLUME BUDGET FOR ENTIRE MODEL AT END OF TIME STEP    1, STRESS PERIOD  47
  ---------------------------------------------------------------------------------------------------

     CUMULATIVE VOLUME      L**3       RATES FOR THIS TIME STEP      L**3/T          PACKAGE NAME    
     ------------------                 ------------------------                     ----------------

           IN:                                      IN:
           ---                                      ---
              STO-SS =       63400.5215                STO-SS =         931.9498     STORAGE                          
                 WEL =       36035.2101                   WEL =         775.9190     RIV_CORR                         
                 DRN =           0.0000                   DRN =           0.0000     DRN_SYS1                         
                 RIV =       28998.6185                   RIV =         823.5415     RIV_SYS1                         
                 RIV =           0.0000                   RIV =           0.0000     RIV_SYS2                         
                 RCH =       96953.6671                   RCH =         268.7740     RCH_MSW                          

            TOTAL IN =      225388.0170              TOTAL IN =        2800.1843

          OUT:                                     OUT:
          ----                                     ----
              STO-SS =       37191.7573                STO-SS =           0.0000     STORAGE                          
                 WEL =       67617.4785                   WEL =         837.5488     RIV_CORR                         
                 DRN =       13181.0239                   DRN =         257.4151     DRN_SYS1                         
                 RIV =       57430.9802                   RIV =         827.1454     RIV_SYS1                         
                 RIV =       35810.8589                   RIV =         691.7226     RIV_SYS2                         
                 RCH =       14156.2631                   RCH =         186.3760     RCH_MSW                          

           TOTAL OUT =      225388.3620             TOTAL OUT =        2800.2080

            IN - OUT =          -0.3450              IN - OUT =      -2.3721E-02

 PERCENT DISCREPANCY =          -0.00     PERCENT DISCREPANCY =          -0.00




         TIME SUMMARY AT END OF TIME STEP    1 IN STRESS PERIOD   47
                    SECONDS     MINUTES      HOURS       DAYS        YEARS
                    -----------------------------------------------------------
   TIME STEP LENGTH  86400.      1440.0      24.000      1.0000     2.73785E-03
 STRESS PERIOD TIME  86400.      1440.0      24.000      1.0000     2.73785E-03
         TOTAL TIME 4.06080E+06  67680.      1128.0      47.000     0.12868    


end timestep


start timestep kper="48" kstp="1" mode="normal"

 #Stressperiod Save Options

 BEGIN READING OUTPUT CONTROL FOR STRESS PERIOD 48
      ALL TIME STEPS WILL BE SAVED
      ALL TIME STEPS WILL BE SAVED

 END READING OUTPUT CONTROL FOR STRESS PERIOD 48


 PROCESSING STORAGE PERIOD DATA
 END PROCESSING STORAGE PERIOD DATA


 STRESS PERIOD 48 IS TRANSIENT


 REUSING WELS FROM LAST STRESS PERIOD

 REUSING DRNS FROM LAST STRESS PERIOD

 REUSING RIVS FROM LAST STRESS PERIOD

 REUSING RIVS FROM LAST STRESS PERIOD

 REUSING RCHS FROM LAST STRESS PERIOD
 UBDSV06 SAVING              DRN IN MODEL GWF_1            PACKAGE GWF_1           CONNECTED TO MODEL GWF_1            PACKAGE DRN_SYS1         ON UNIT   1019 AT TIME STEP      1, STRESS PERIOD     48
 UBDSV06 SAVING              RIV IN MODEL GWF_1            PACKAGE GWF_1           CONNECTED TO MODEL GWF_1            PACKAGE RIV_SYS1         ON UNIT   1019 AT TIME STEP      1, STRESS PERIOD     48
 UBDSV06 SAVING              RIV IN MODEL GWF_1            PACKAGE GWF_1           CONNECTED TO MODEL GWF_1            PACKAGE RIV_SYS2         ON UNIT   1019 AT TIME STEP      1, STRESS PERIOD     48

 HEAD WILL BE SAVED ON UNIT 1018 AT END OF TIME STEP    1, STRESS PERIOD   48


  VOLUME BUDGET FOR ENTIRE MODEL AT END OF TIME STEP    1, STRESS PERIOD  48
  ---------------------------------------------------------------------------------------------------

     CUMULATIVE VOLUME      L**3       RATES FOR THIS TIME STEP      L**3/T          PACKAGE NAME    
     ------------------                 ------------------------                     ----------------

           IN:                                      IN:
           ---                                      ---
              STO-SS =       64320.8969                STO-SS =         920.3754     STORAGE                          
                 WEL =       36858.7515                   WEL =         823.5415     RIV_CORR                         
                 DRN =           0.0000                   DRN =           0.0000     DRN_SYS1                         
                 RIV =       29853.3872                   RIV =         854.7687     RIV_SYS1                         
                 RIV =           0.0000                   RIV =           0.0000     RIV_SYS2                         
                 RCH =       97178.5909                   RCH =         224.9239     RCH_MSW                          

            TOTAL IN =      228211.6265              TOTAL IN =        2823.6094

          OUT:                                     OUT:
          ----                                     ----
              STO-SS =       37191.7573                STO-SS =           0.0000     STORAGE                          
                 WEL =       68444.6239                   WEL =         827.1454     RIV_CORR                         
                 DRN =       13436.7549                   DRN =         255.7310     DRN_SYS1                         
                 RIV =       58248.8355                   RIV =         817.8552     RIV_SYS1                         
                 RIV =       36498.3317                   RIV =         687.4728     RIV_SYS2                         
                 RCH =       14391.6824                   RCH =         235.4193     RCH_MSW                          

           TOTAL OUT =      228211.9857             TOTAL OUT =        2823.6237

            IN - OUT =          -0.3592              IN - OUT =      -1.4277E-02

 PERCENT DISCREPANCY =          -0.00     PERCENT DISCREPANCY =          -0.00




         TIME SUMMARY AT END OF TIME STEP    1 IN STRESS PERIOD   48
                    SECONDS     MINUTES      HOURS       DAYS        YEARS
                    -----------------------------------------------------------
   TIME STEP LENGTH  86400.      1440.0      24.000      1.0000     2.73785E-03
 STRESS PERIOD TIME  86400.      1440.0      24.000      1.0000     2.73785E-03
         TOTAL TIME 4.14720E+06  69120.      1152.0      48.000     0.13142    


end timestep


start timestep kper="49" kstp="1" mode="normal"

 #Stressperiod Save Options

 BEGIN READING OUTPUT CONTROL FOR STRESS PERIOD 49
      ALL TIME STEPS WILL BE SAVED
      ALL TIME STEPS WILL BE SAVED

 END READING OUTPUT CONTROL FOR STRESS PERIOD 49


 PROCESSING STORAGE PERIOD DATA
 END PROCESSING STORAGE PERIOD DATA


 STRESS PERIOD 49 IS TRANSIENT


 REUSING WELS FROM LAST STRESS PERIOD

 REUSING DRNS FROM LAST STRESS PERIOD

 REUSING RIVS FROM LAST STRESS PERIOD

 REUSING RIVS FROM LAST STRESS PERIOD

 REUSING RCHS FROM LAST STRESS PERIOD
 UBDSV06 SAVING              DRN IN MODEL GWF_1            PACKAGE GWF_1           CONNECTED TO MODEL GWF_1            PACKAGE DRN_SYS1         ON UNIT   1019 AT TIME STEP      1, STRESS PERIOD     49
 UBDSV06 SAVING              RIV IN MODEL GWF_1            PACKAGE GWF_1           CONNECTED TO MODEL GWF_1            PACKAGE RIV_SYS1         ON UNIT   1019 AT TIME STEP      1, STRESS PERIOD     49
 UBDSV06 SAVING              RIV IN MODEL GWF_1            PACKAGE GWF_1           CONNECTED TO MODEL GWF_1            PACKAGE RIV_SYS2         ON UNIT   1019 AT TIME STEP      1, STRESS PERIOD     49

 HEAD WILL BE SAVED ON UNIT 1018 AT END OF TIME STEP    1, STRESS PERIOD   49


  VOLUME BUDGET FOR ENTIRE MODEL AT END OF TIME STEP    1, STRESS PERIOD  49
  ---------------------------------------------------------------------------------------------------

     CUMULATIVE VOLUME      L**3       RATES FOR THIS TIME STEP      L**3/T          PACKAGE NAME    
     ------------------                 ------------------------                     ----------------

           IN:                                      IN:
           ---                                      ---
              STO-SS =       65215.5811                STO-SS =         894.6842     STORAGE                          
                 WEL =       37713.5202                   WEL =         854.7687     RIV_CORR                         
                 DRN =           0.0000                   DRN =           0.0000     DRN_SYS1                         
                 RIV =       30732.4758                   RIV =         879.0887     RIV_SYS1                         
                 RIV =           0.0000                   RIV =           0.0000     RIV_SYS2                         
                 RCH =       97367.6214                   RCH =         189.0305     RCH_MSW                          

            TOTAL IN =      231029.1985              TOTAL IN =        2817.5721

          OUT:                                     OUT:
          ----                                     ----
              STO-SS =       37191.7573                STO-SS =           0.0000     STORAGE                          
                 WEL =       69262.4791                   WEL =         817.8552     RIV_CORR                         
                 DRN =       13690.8498                   DRN =         254.0949     DRN_SYS1                         
                 RIV =       59057.8425                   RIV =         809.0071     RIV_SYS1                         
                 RIV =       37181.6890                   RIV =         683.3573     RIV_SYS2                         
                 RCH =       14644.9548                   RCH =         253.2724     RCH_MSW                          

           TOTAL OUT =      231029.5726             TOTAL OUT =        2817.5869

            IN - OUT =          -0.3741              IN - OUT =      -1.4813E-02

 PERCENT DISCREPANCY =          -0.00     PERCENT DISCREPANCY =          -0.00




         TIME SUMMARY AT END OF TIME STEP    1 IN STRESS PERIOD   49
                    SECONDS     MINUTES      HOURS       DAYS        YEARS
                    -----------------------------------------------------------
   TIME STEP LENGTH  86400.      1440.0      24.000      1.0000     2.73785E-03
 STRESS PERIOD TIME  86400.      1440.0      24.000      1.0000     2.73785E-03
         TOTAL TIME 4.23360E+06  70560.      1176.0      49.000     0.13415    


end timestep


start timestep kper="50" kstp="1" mode="normal"

 #Stressperiod Save Options

 BEGIN READING OUTPUT CONTROL FOR STRESS PERIOD 50
      ALL TIME STEPS WILL BE SAVED
      ALL TIME STEPS WILL BE SAVED

 END READING OUTPUT CONTROL FOR STRESS PERIOD 50


 PROCESSING STORAGE PERIOD DATA
 END PROCESSING STORAGE PERIOD DATA


 STRESS PERIOD 50 IS TRANSIENT


 REUSING WELS FROM LAST STRESS PERIOD

 REUSING DRNS FROM LAST STRESS PERIOD

 REUSING RIVS FROM LAST STRESS PERIOD

 REUSING RIVS FROM LAST STRESS PERIOD

 REUSING RCHS FROM LAST STRESS PERIOD
 UBDSV06 SAVING              DRN IN MODEL GWF_1            PACKAGE GWF_1           CONNECTED TO MODEL GWF_1            PACKAGE DRN_SYS1         ON UNIT   1019 AT TIME STEP      1, STRESS PERIOD     50
 UBDSV06 SAVING              RIV IN MODEL GWF_1            PACKAGE GWF_1           CONNECTED TO MODEL GWF_1            PACKAGE RIV_SYS1         ON UNIT   1019 AT TIME STEP      1, STRESS PERIOD     50
 UBDSV06 SAVING              RIV IN MODEL GWF_1            PACKAGE GWF_1           CONNECTED TO MODEL GWF_1            PACKAGE RIV_SYS2         ON UNIT   1019 AT TIME STEP      1, STRESS PERIOD     50

 HEAD WILL BE SAVED ON UNIT 1018 AT END OF TIME STEP    1, STRESS PERIOD   50


  VOLUME BUDGET FOR ENTIRE MODEL AT END OF TIME STEP    1, STRESS PERIOD  50
  ---------------------------------------------------------------------------------------------------

     CUMULATIVE VOLUME      L**3       RATES FOR THIS TIME STEP      L**3/T          PACKAGE NAME    
     ------------------                 ------------------------                     ----------------

           IN:                                      IN:
           ---                                      ---
              STO-SS =       66098.3769                STO-SS =         882.7958     STORAGE                          
                 WEL =       38592.6089                   WEL =         879.0887     RIV_CORR                         
                 DRN =           0.0000                   DRN =           0.0000     DRN_SYS1                         
                 RIV =       31643.5685                   RIV =         911.0926     RIV_SYS1                         
                 RIV =           0.0000                   RIV =           0.0000     RIV_SYS2                         
                 RCH =       97527.0499                   RCH =         159.4286     RCH_MSW                          

            TOTAL IN =      233861.6042              TOTAL IN =        2832.4057

          OUT:                                     OUT:
          ----                                     ----
              STO-SS =       37191.7573                STO-SS =           0.0000     STORAGE                          
                 WEL =       70071.4862                   WEL =         809.0071     RIV_CORR                         
                 DRN =       13943.3600                   DRN =         252.5102     DRN_SYS1                         
                 RIV =       59858.1928                   RIV =         800.3503     RIV_SYS1                         
                 RIV =       37861.0565                   RIV =         679.3675     RIV_SYS2                         
                 RCH =       14936.1358                   RCH =         291.1809     RCH_MSW                          

           TOTAL OUT =      233861.9886             TOTAL OUT =        2832.4160

            IN - OUT =          -0.3844              IN - OUT =      -1.0296E-02

 PERCENT DISCREPANCY =          -0.00     PERCENT DISCREPANCY =          -0.00




         TIME SUMMARY AT END OF TIME STEP    1 IN STRESS PERIOD   50
                    SECONDS     MINUTES      HOURS       DAYS        YEARS
                    -----------------------------------------------------------
   TIME STEP LENGTH  86400.      1440.0      24.000      1.0000     2.73785E-03
 STRESS PERIOD TIME  86400.      1440.0      24.000      1.0000     2.73785E-03
         TOTAL TIME 4.32000E+06  72000.      1200.0      50.000     0.13689    


end timestep


start timestep kper="51" kstp="1" mode="normal"

 #Stressperiod Save Options

 BEGIN READING OUTPUT CONTROL FOR STRESS PERIOD 51
      ALL TIME STEPS WILL BE SAVED
      ALL TIME STEPS WILL BE SAVED

 END READING OUTPUT CONTROL FOR STRESS PERIOD 51


 PROCESSING STORAGE PERIOD DATA
 END PROCESSING STORAGE PERIOD DATA


 STRESS PERIOD 51 IS TRANSIENT


 REUSING WELS FROM LAST STRESS PERIOD

 REUSING DRNS FROM LAST STRESS PERIOD

 REUSING RIVS FROM LAST STRESS PERIOD

 REUSING RIVS FROM LAST STRESS PERIOD

 REUSING RCHS FROM LAST STRESS PERIOD
 UBDSV06 SAVING              DRN IN MODEL GWF_1            PACKAGE GWF_1           CONNECTED TO MODEL GWF_1            PACKAGE DRN_SYS1         ON UNIT   1019 AT TIME STEP      1, STRESS PERIOD     51
 UBDSV06 SAVING              RIV IN MODEL GWF_1            PACKAGE GWF_1           CONNECTED TO MODEL GWF_1            PACKAGE RIV_SYS1         ON UNIT   1019 AT TIME STEP      1, STRESS PERIOD     51
 UBDSV06 SAVING              RIV IN MODEL GWF_1            PACKAGE GWF_1           CONNECTED TO MODEL GWF_1            PACKAGE RIV_SYS2         ON UNIT   1019 AT TIME STEP      1, STRESS PERIOD     51

 HEAD WILL BE SAVED ON UNIT 1018 AT END OF TIME STEP    1, STRESS PERIOD   51


  VOLUME BUDGET FOR ENTIRE MODEL AT END OF TIME STEP    1, STRESS PERIOD  51
  ---------------------------------------------------------------------------------------------------

     CUMULATIVE VOLUME      L**3       RATES FOR THIS TIME STEP      L**3/T          PACKAGE NAME    
     ------------------                 ------------------------                     ----------------

           IN:                                      IN:
           ---                                      ---
              STO-SS =       66936.5557                STO-SS =         838.1788     STORAGE                          
                 WEL =       39503.7015                   WEL =         911.0926     RIV_CORR                         
                 DRN =           0.0000                   DRN =           0.0000     DRN_SYS1                         
                 RIV =       32565.5726                   RIV =         922.0041     RIV_SYS1                         
                 RIV =           0.0000                   RIV =           0.0000     RIV_SYS2                         
                 RCH =       97663.9325                   RCH =         136.8826     RCH_MSW                          

            TOTAL IN =      236669.7623              TOTAL IN =        2808.1581

          OUT:                                     OUT:
          ----                                     ----
              STO-SS =       37192.3279                STO-SS =           0.5706     STORAGE                          
                 WEL =       70871.8364                   WEL =         800.3503     RIV_CORR                         
                 DRN =       14194.3495                   DRN =         250.9895     DRN_SYS1                         
                 RIV =       60650.6569                   RIV =         792.4641     RIV_SYS1                         
                 RIV =       38536.6019                   RIV =         675.5454     RIV_SYS2                         
                 RCH =       15224.3874                   RCH =         288.2516     RCH_MSW                          

           TOTAL OUT =      236670.1601             TOTAL OUT =        2808.1715

            IN - OUT =          -0.3977              IN - OUT =      -1.3390E-02

 PERCENT DISCREPANCY =          -0.00     PERCENT DISCREPANCY =          -0.00




         TIME SUMMARY AT END OF TIME STEP    1 IN STRESS PERIOD   51
                    SECONDS     MINUTES      HOURS       DAYS        YEARS
                    -----------------------------------------------------------
   TIME STEP LENGTH  86400.      1440.0      24.000      1.0000     2.73785E-03
 STRESS PERIOD TIME  86400.      1440.0      24.000      1.0000     2.73785E-03
         TOTAL TIME 4.40640E+06  73440.      1224.0      51.000     0.13963    


end timestep


start timestep kper="52" kstp="1" mode="normal"

 #Stressperiod Save Options

 BEGIN READING OUTPUT CONTROL FOR STRESS PERIOD 52
      ALL TIME STEPS WILL BE SAVED
      ALL TIME STEPS WILL BE SAVED

 END READING OUTPUT CONTROL FOR STRESS PERIOD 52


 PROCESSING STORAGE PERIOD DATA
 END PROCESSING STORAGE PERIOD DATA


 STRESS PERIOD 52 IS TRANSIENT


 REUSING WELS FROM LAST STRESS PERIOD

 REUSING DRNS FROM LAST STRESS PERIOD

 REUSING RIVS FROM LAST STRESS PERIOD

 REUSING RIVS FROM LAST STRESS PERIOD

 REUSING RCHS FROM LAST STRESS PERIOD
 UBDSV06 SAVING              DRN IN MODEL GWF_1            PACKAGE GWF_1           CONNECTED TO MODEL GWF_1            PACKAGE DRN_SYS1         ON UNIT   1019 AT TIME STEP      1, STRESS PERIOD     52
 UBDSV06 SAVING              RIV IN MODEL GWF_1            PACKAGE GWF_1           CONNECTED TO MODEL GWF_1            PACKAGE RIV_SYS1         ON UNIT   1019 AT TIME STEP      1, STRESS PERIOD     52
 UBDSV06 SAVING              RIV IN MODEL GWF_1            PACKAGE GWF_1           CONNECTED TO MODEL GWF_1            PACKAGE RIV_SYS2         ON UNIT   1019 AT TIME STEP      1, STRESS PERIOD     52

 HEAD WILL BE SAVED ON UNIT 1018 AT END OF TIME STEP    1, STRESS PERIOD   52


  VOLUME BUDGET FOR ENTIRE MODEL AT END OF TIME STEP    1, STRESS PERIOD  52
  ---------------------------------------------------------------------------------------------------

     CUMULATIVE VOLUME      L**3       RATES FOR THIS TIME STEP      L**3/T          PACKAGE NAME    
     ------------------                 ------------------------                     ----------------

           IN:                                      IN:
           ---                                      ---
              STO-SS =       67723.0956                STO-SS =         786.5399     STORAGE                          
                 WEL =       40425.7056                   WEL =         922.0041     RIV_CORR                         
                 DRN =           0.0000                   DRN =           0.0000     DRN_SYS1                         
                 RIV =       33493.3638                   RIV =         927.7912     RIV_SYS1                         
                 RIV =           0.0000                   RIV =           0.0000     RIV_SYS2                         
                 RCH =       97782.9880                   RCH =         119.0554     RCH_MSW                          

            TOTAL IN =      239425.1530              TOTAL IN =        2755.3907

          OUT:                                     OUT:
          ----                                     ----
              STO-SS =       37193.4190                STO-SS =           1.0911     STORAGE                          
                 WEL =       71664.3006                   WEL =         792.4641     RIV_CORR                         
                 DRN =       14443.9019                   DRN =         249.5523     DRN_SYS1                         
                 RIV =       61435.9419                   RIV =         785.2850     RIV_SYS1                         
                 RIV =       39208.5450                   RIV =         671.9431     RIV_SYS2                         
                 RCH =       15479.4529                   RCH =         255.0655     RCH_MSW                          

           TOTAL OUT =      239425.5612             TOTAL OUT =        2755.4011

            IN - OUT =          -0.4082              IN - OUT =      -1.0494E-02

 PERCENT DISCREPANCY =          -0.00     PERCENT DISCREPANCY =          -0.00




         TIME SUMMARY AT END OF TIME STEP    1 IN STRESS PERIOD   52
                    SECONDS     MINUTES      HOURS       DAYS        YEARS
                    -----------------------------------------------------------
   TIME STEP LENGTH  86400.      1440.0      24.000      1.0000     2.73785E-03
 STRESS PERIOD TIME  86400.      1440.0      24.000      1.0000     2.73785E-03
         TOTAL TIME 4.49280E+06  74880.      1248.0      52.000     0.14237    


end timestep


start timestep kper="53" kstp="1" mode="normal"

 #Stressperiod Save Options

 BEGIN READING OUTPUT CONTROL FOR STRESS PERIOD 53
      ALL TIME STEPS WILL BE SAVED
      ALL TIME STEPS WILL BE SAVED

 END READING OUTPUT CONTROL FOR STRESS PERIOD 53


 PROCESSING STORAGE PERIOD DATA
 END PROCESSING STORAGE PERIOD DATA


 STRESS PERIOD 53 IS TRANSIENT


 REUSING WELS FROM LAST STRESS PERIOD

 REUSING DRNS FROM LAST STRESS PERIOD

 REUSING RIVS FROM LAST STRESS PERIOD

 REUSING RIVS FROM LAST STRESS PERIOD

 REUSING RCHS FROM LAST STRESS PERIOD
 UBDSV06 SAVING              DRN IN MODEL GWF_1            PACKAGE GWF_1           CONNECTED TO MODEL GWF_1            PACKAGE DRN_SYS1         ON UNIT   1019 AT TIME STEP      1, STRESS PERIOD     53
 UBDSV06 SAVING              RIV IN MODEL GWF_1            PACKAGE GWF_1           CONNECTED TO MODEL GWF_1            PACKAGE RIV_SYS1         ON UNIT   1019 AT TIME STEP      1, STRESS PERIOD     53
 UBDSV06 SAVING              RIV IN MODEL GWF_1            PACKAGE GWF_1           CONNECTED TO MODEL GWF_1            PACKAGE RIV_SYS2         ON UNIT   1019 AT TIME STEP      1, STRESS PERIOD     53

 HEAD WILL BE SAVED ON UNIT 1018 AT END OF TIME STEP    1, STRESS PERIOD   53


  VOLUME BUDGET FOR ENTIRE MODEL AT END OF TIME STEP    1, STRESS PERIOD  53
  ---------------------------------------------------------------------------------------------------

     CUMULATIVE VOLUME      L**3       RATES FOR THIS TIME STEP      L**3/T          PACKAGE NAME    
     ------------------                 ------------------------                     ----------------

           IN:                                      IN:
           ---                                      ---
              STO-SS =       68407.5631                STO-SS =         684.4674     STORAGE                          
                 WEL =       41353.4968                   WEL =         927.7912     RIV_CORR                         
                 DRN =           0.0000                   DRN =           0.0000     DRN_SYS1                         
                 RIV =       34405.4570                   RIV =         912.0932     RIV_SYS1                         
                 RIV =           0.0000                   RIV =           0.0000     RIV_SYS2                         
                 RCH =       97919.6224                   RCH =         136.6345     RCH_MSW                          

            TOTAL IN =      242086.1393              TOTAL IN =        2660.9863

          OUT:                                     OUT:
          ----                                     ----
              STO-SS =       37205.1254                STO-SS =          11.7065     STORAGE                          
                 WEL =       72449.5855                   WEL =         785.2850     RIV_CORR                         
                 DRN =       14692.1630                   DRN =         248.2612     DRN_SYS1                         
                 RIV =       62215.2235                   RIV =         779.2816     RIV_SYS1                         
                 RIV =       39877.4091                   RIV =         668.8641     RIV_SYS2                         
                 RCH =       15647.1058                   RCH =         167.6529     RCH_MSW                          

           TOTAL OUT =      242086.6124             TOTAL OUT =        2661.0512

            IN - OUT =          -0.4731              IN - OUT =      -6.4833E-02

 PERCENT DISCREPANCY =          -0.00     PERCENT DISCREPANCY =          -0.00




         TIME SUMMARY AT END OF TIME STEP    1 IN STRESS PERIOD   53
                    SECONDS     MINUTES      HOURS       DAYS        YEARS
                    -----------------------------------------------------------
   TIME STEP LENGTH  86400.      1440.0      24.000      1.0000     2.73785E-03
 STRESS PERIOD TIME  86400.      1440.0      24.000      1.0000     2.73785E-03
         TOTAL TIME 4.57920E+06  76320.      1272.0      53.000     0.14511    


end timestep


start timestep kper="54" kstp="1" mode="normal"

 #Stressperiod Save Options

 BEGIN READING OUTPUT CONTROL FOR STRESS PERIOD 54
      ALL TIME STEPS WILL BE SAVED
      ALL TIME STEPS WILL BE SAVED

 END READING OUTPUT CONTROL FOR STRESS PERIOD 54


 PROCESSING STORAGE PERIOD DATA
 END PROCESSING STORAGE PERIOD DATA


 STRESS PERIOD 54 IS TRANSIENT


 REUSING WELS FROM LAST STRESS PERIOD

 REUSING DRNS FROM LAST STRESS PERIOD

 REUSING RIVS FROM LAST STRESS PERIOD

 REUSING RIVS FROM LAST STRESS PERIOD

 REUSING RCHS FROM LAST STRESS PERIOD
 UBDSV06 SAVING              DRN IN MODEL GWF_1            PACKAGE GWF_1           CONNECTED TO MODEL GWF_1            PACKAGE DRN_SYS1         ON UNIT   1019 AT TIME STEP      1, STRESS PERIOD     54
 UBDSV06 SAVING              RIV IN MODEL GWF_1            PACKAGE GWF_1           CONNECTED TO MODEL GWF_1            PACKAGE RIV_SYS1         ON UNIT   1019 AT TIME STEP      1, STRESS PERIOD     54
 UBDSV06 SAVING              RIV IN MODEL GWF_1            PACKAGE GWF_1           CONNECTED TO MODEL GWF_1            PACKAGE RIV_SYS2         ON UNIT   1019 AT TIME STEP      1, STRESS PERIOD     54

 HEAD WILL BE SAVED ON UNIT 1018 AT END OF TIME STEP    1, STRESS PERIOD   54


  VOLUME BUDGET FOR ENTIRE MODEL AT END OF TIME STEP    1, STRESS PERIOD  54
  ---------------------------------------------------------------------------------------------------

     CUMULATIVE VOLUME      L**3       RATES FOR THIS TIME STEP      L**3/T          PACKAGE NAME    
     ------------------                 ------------------------                     ----------------

           IN:                                      IN:
           ---                                      ---
              STO-SS =       69070.6595                STO-SS =         663.0964     STORAGE                          
                 WEL =       42265.5901                   WEL =         912.0932     RIV_CORR                         
                 DRN =           0.0000                   DRN =           0.0000     DRN_SYS1                         
                 RIV =       35340.4092                   RIV =         934.9522     RIV_SYS1                         
                 RIV =           0.0000                   RIV =           0.0000     RIV_SYS2                         
                 RCH =       98036.1849                   RCH =         116.5625     RCH_MSW                          

            TOTAL IN =      244712.8437              TOTAL IN =        2626.7043

          OUT:                                     OUT:
          ----                                     ----
              STO-SS =       37205.1254                STO-SS =           0.0000     STORAGE                          
                 WEL =       73228.8671                   WEL =         779.2816     RIV_CORR                         
                 DRN =       14939.2371                   DRN =         247.0741     DRN_SYS1                         
                 RIV =       62988.6632                   RIV =         773.4397     RIV_SYS1                         
                 RIV =       40543.3091                   RIV =         665.8999     RIV_SYS2                         
                 RCH =       15808.1175                   RCH =         161.0118     RCH_MSW                          

           TOTAL OUT =      244713.3195             TOTAL OUT =        2626.7071

            IN - OUT =          -0.4758              IN - OUT =      -2.7601E-03

 PERCENT DISCREPANCY =          -0.00     PERCENT DISCREPANCY =          -0.00




         TIME SUMMARY AT END OF TIME STEP    1 IN STRESS PERIOD   54
                    SECONDS     MINUTES      HOURS       DAYS        YEARS
                    -----------------------------------------------------------
   TIME STEP LENGTH  86400.      1440.0      24.000      1.0000     2.73785E-03
 STRESS PERIOD TIME  86400.      1440.0      24.000      1.0000     2.73785E-03
         TOTAL TIME 4.66560E+06  77760.      1296.0      54.000     0.14784    


end timestep


start timestep kper="55" kstp="1" mode="normal"

 #Stressperiod Save Options

 BEGIN READING OUTPUT CONTROL FOR STRESS PERIOD 55
      ALL TIME STEPS WILL BE SAVED
      ALL TIME STEPS WILL BE SAVED

 END READING OUTPUT CONTROL FOR STRESS PERIOD 55


 PROCESSING STORAGE PERIOD DATA
 END PROCESSING STORAGE PERIOD DATA


 STRESS PERIOD 55 IS TRANSIENT


 REUSING WELS FROM LAST STRESS PERIOD

 REUSING DRNS FROM LAST STRESS PERIOD

 REUSING RIVS FROM LAST STRESS PERIOD

 REUSING RIVS FROM LAST STRESS PERIOD

 REUSING RCHS FROM LAST STRESS PERIOD
 UBDSV06 SAVING              DRN IN MODEL GWF_1            PACKAGE GWF_1           CONNECTED TO MODEL GWF_1            PACKAGE DRN_SYS1         ON UNIT   1019 AT TIME STEP      1, STRESS PERIOD     55
 UBDSV06 SAVING              RIV IN MODEL GWF_1            PACKAGE GWF_1           CONNECTED TO MODEL GWF_1            PACKAGE RIV_SYS1         ON UNIT   1019 AT TIME STEP      1, STRESS PERIOD     55
 UBDSV06 SAVING              RIV IN MODEL GWF_1            PACKAGE GWF_1           CONNECTED TO MODEL GWF_1            PACKAGE RIV_SYS2         ON UNIT   1019 AT TIME STEP      1, STRESS PERIOD     55

 HEAD WILL BE SAVED ON UNIT 1018 AT END OF TIME STEP    1, STRESS PERIOD   55


  VOLUME BUDGET FOR ENTIRE MODEL AT END OF TIME STEP    1, STRESS PERIOD  55
  ---------------------------------------------------------------------------------------------------

     CUMULATIVE VOLUME      L**3       RATES FOR THIS TIME STEP      L**3/T          PACKAGE NAME    
     ------------------                 ------------------------                     ----------------

           IN:                                      IN:
           ---                                      ---
              STO-SS =       69575.8810                STO-SS =         505.2215     STORAGE                          
                 WEL =       43200.5422                   WEL =         934.9522     RIV_CORR                         
                 DRN =           0.0000                   DRN =           0.0000     DRN_SYS1                         
                 RIV =       36103.2098                   RIV =         762.8006     RIV_SYS1                         
                 RIV =           0.0000                   RIV =           0.0000     RIV_SYS2                         
                 RCH =       98599.5445                   RCH =         563.3595     RCH_MSW                          

            TOTAL IN =      247479.1775              TOTAL IN =        2766.3338

          OUT:                                     OUT:
          ----                                     ----
              STO-SS =       37421.1588                STO-SS =         216.0333     STORAGE                          
                 WEL =       74002.3068                   WEL =         773.4397     RIV_CORR                         
                 DRN =       15185.4256                   DRN =         246.1885     DRN_SYS1                         
                 RIV =       63796.5060                   RIV =         807.8428     RIV_SYS1                         
                 RIV =       41206.9987                   RIV =         663.6896     RIV_SYS2                         
                 RCH =       15867.2497                   RCH =          59.1321     RCH_MSW                          

           TOTAL OUT =      247479.6457             TOTAL OUT =        2766.3261

            IN - OUT =          -0.4682              IN - OUT =       7.6549E-03

 PERCENT DISCREPANCY =          -0.00     PERCENT DISCREPANCY =           0.00




         TIME SUMMARY AT END OF TIME STEP    1 IN STRESS PERIOD   55
                    SECONDS     MINUTES      HOURS       DAYS        YEARS
                    -----------------------------------------------------------
   TIME STEP LENGTH  86400.      1440.0      24.000      1.0000     2.73785E-03
 STRESS PERIOD TIME  86400.      1440.0      24.000      1.0000     2.73785E-03
         TOTAL TIME 4.75200E+06  79200.      1320.0      55.000     0.15058    


end timestep


start timestep kper="56" kstp="1" mode="normal"

 #Stressperiod Save Options

 BEGIN READING OUTPUT CONTROL FOR STRESS PERIOD 56
      ALL TIME STEPS WILL BE SAVED
      ALL TIME STEPS WILL BE SAVED

 END READING OUTPUT CONTROL FOR STRESS PERIOD 56


 PROCESSING STORAGE PERIOD DATA
 END PROCESSING STORAGE PERIOD DATA


 STRESS PERIOD 56 IS TRANSIENT


 REUSING WELS FROM LAST STRESS PERIOD

 REUSING DRNS FROM LAST STRESS PERIOD

 REUSING RIVS FROM LAST STRESS PERIOD

 REUSING RIVS FROM LAST STRESS PERIOD

 REUSING RCHS FROM LAST STRESS PERIOD
 UBDSV06 SAVING              DRN IN MODEL GWF_1            PACKAGE GWF_1           CONNECTED TO MODEL GWF_1            PACKAGE DRN_SYS1         ON UNIT   1019 AT TIME STEP      1, STRESS PERIOD     56
 UBDSV06 SAVING              RIV IN MODEL GWF_1            PACKAGE GWF_1           CONNECTED TO MODEL GWF_1            PACKAGE RIV_SYS1         ON UNIT   1019 AT TIME STEP      1, STRESS PERIOD     56
 UBDSV06 SAVING              RIV IN MODEL GWF_1            PACKAGE GWF_1           CONNECTED TO MODEL GWF_1            PACKAGE RIV_SYS2         ON UNIT   1019 AT TIME STEP      1, STRESS PERIOD     56

 HEAD WILL BE SAVED ON UNIT 1018 AT END OF TIME STEP    1, STRESS PERIOD   56


  VOLUME BUDGET FOR ENTIRE MODEL AT END OF TIME STEP    1, STRESS PERIOD  56
  ---------------------------------------------------------------------------------------------------

     CUMULATIVE VOLUME      L**3       RATES FOR THIS TIME STEP      L**3/T          PACKAGE NAME    
     ------------------                 ------------------------                     ----------------

           IN:                                      IN:
           ---                                      ---
              STO-SS =       70202.5395                STO-SS =         626.6585     STORAGE                          
                 WEL =       43963.3428                   WEL =         762.8006     RIV_CORR                         
                 DRN =           0.0000                   DRN =           0.0000     DRN_SYS1                         
                 RIV =       37080.0603                   RIV =         976.8505     RIV_SYS1                         
                 RIV =           0.0000                   RIV =           0.0000     RIV_SYS2                         
                 RCH =       98770.8916                   RCH =         171.3471     RCH_MSW                          

            TOTAL IN =      250016.8342              TOTAL IN =        2537.6567

          OUT:                                     OUT:
          ----                                     ----
              STO-SS =       37421.1588                STO-SS =           0.0000     STORAGE                          
                 WEL =       74810.1497                   WEL =         807.8428     RIV_CORR                         
                 DRN =       15430.8089                   DRN =         245.3833     DRN_SYS1                         
                 RIV =       64564.0847                   RIV =         767.5787     RIV_SYS1                         
                 RIV =       41868.6489                   RIV =         661.6502     RIV_SYS2                         
                 RCH =       15922.5053                   RCH =          55.2556     RCH_MSW                          

           TOTAL OUT =      250017.3563             TOTAL OUT =        2537.7106

            IN - OUT =          -0.5221              IN - OUT =      -5.3930E-02

 PERCENT DISCREPANCY =          -0.00     PERCENT DISCREPANCY =          -0.00




         TIME SUMMARY AT END OF TIME STEP    1 IN STRESS PERIOD   56
                    SECONDS     MINUTES      HOURS       DAYS        YEARS
                    -----------------------------------------------------------
   TIME STEP LENGTH  86400.      1440.0      24.000      1.0000     2.73785E-03
 STRESS PERIOD TIME  86400.      1440.0      24.000      1.0000     2.73785E-03
         TOTAL TIME 4.83840E+06  80640.      1344.0      56.000     0.15332    


end timestep


start timestep kper="57" kstp="1" mode="normal"

 #Stressperiod Save Options

 BEGIN READING OUTPUT CONTROL FOR STRESS PERIOD 57
      ALL TIME STEPS WILL BE SAVED
      ALL TIME STEPS WILL BE SAVED

 END READING OUTPUT CONTROL FOR STRESS PERIOD 57


 PROCESSING STORAGE PERIOD DATA
 END PROCESSING STORAGE PERIOD DATA


 STRESS PERIOD 57 IS TRANSIENT


 REUSING WELS FROM LAST STRESS PERIOD

 REUSING DRNS FROM LAST STRESS PERIOD

 REUSING RIVS FROM LAST STRESS PERIOD

 REUSING RIVS FROM LAST STRESS PERIOD

 REUSING RCHS FROM LAST STRESS PERIOD
 UBDSV06 SAVING              DRN IN MODEL GWF_1            PACKAGE GWF_1           CONNECTED TO MODEL GWF_1            PACKAGE DRN_SYS1         ON UNIT   1019 AT TIME STEP      1, STRESS PERIOD     57
 UBDSV06 SAVING              RIV IN MODEL GWF_1            PACKAGE GWF_1           CONNECTED TO MODEL GWF_1            PACKAGE RIV_SYS1         ON UNIT   1019 AT TIME STEP      1, STRESS PERIOD     57
 UBDSV06 SAVING              RIV IN MODEL GWF_1            PACKAGE GWF_1           CONNECTED TO MODEL GWF_1            PACKAGE RIV_SYS2         ON UNIT   1019 AT TIME STEP      1, STRESS PERIOD     57

 HEAD WILL BE SAVED ON UNIT 1018 AT END OF TIME STEP    1, STRESS PERIOD   57


  VOLUME BUDGET FOR ENTIRE MODEL AT END OF TIME STEP    1, STRESS PERIOD  57
  ---------------------------------------------------------------------------------------------------

     CUMULATIVE VOLUME      L**3       RATES FOR THIS TIME STEP      L**3/T          PACKAGE NAME    
     ------------------                 ------------------------                     ----------------

           IN:                                      IN:
           ---                                      ---
              STO-SS =       70758.3649                STO-SS =         555.8254     STORAGE                          
                 WEL =       44940.1933                   WEL =         976.8505     RIV_CORR                         
                 DRN =           0.0000                   DRN =           0.0000     DRN_SYS1                         
                 RIV =       38016.8352                   RIV =         936.7749     RIV_SYS1                         
                 RIV =           0.0000                   RIV =           0.0000     RIV_SYS2                         
                 RCH =       98870.0317                   RCH =          99.1402     RCH_MSW                          

            TOTAL IN =      252585.4251              TOTAL IN =        2568.5910

          OUT:                                     OUT:
          ----                                     ----
              STO-SS =       37431.1663                STO-SS =          10.0075     STORAGE                          
                 WEL =       75577.7284                   WEL =         767.5787     RIV_CORR                         
                 DRN =       15675.3706                   DRN =         244.5617     DRN_SYS1                         
                 RIV =       65327.6146                   RIV =         763.5299     RIV_SYS1                         
                 RIV =       42528.1663                   RIV =         659.5174     RIV_SYS2                         
                 RCH =       16045.9002                   RCH =         123.3948     RCH_MSW                          

           TOTAL OUT =      252585.9463             TOTAL OUT =        2568.5900

            IN - OUT =          -0.5212              IN - OUT =       9.5547E-04

 PERCENT DISCREPANCY =          -0.00     PERCENT DISCREPANCY =           0.00




         TIME SUMMARY AT END OF TIME STEP    1 IN STRESS PERIOD   57
                    SECONDS     MINUTES      HOURS       DAYS        YEARS
                    -----------------------------------------------------------
   TIME STEP LENGTH  86400.      1440.0      24.000      1.0000     2.73785E-03
 STRESS PERIOD TIME  86400.      1440.0      24.000      1.0000     2.73785E-03
         TOTAL TIME 4.92480E+06  82080.      1368.0      57.000     0.15606    


end timestep


start timestep kper="58" kstp="1" mode="normal"

 #Stressperiod Save Options

 BEGIN READING OUTPUT CONTROL FOR STRESS PERIOD 58
      ALL TIME STEPS WILL BE SAVED
      ALL TIME STEPS WILL BE SAVED

 END READING OUTPUT CONTROL FOR STRESS PERIOD 58


 PROCESSING STORAGE PERIOD DATA
 END PROCESSING STORAGE PERIOD DATA


 STRESS PERIOD 58 IS TRANSIENT


 REUSING WELS FROM LAST STRESS PERIOD

 REUSING DRNS FROM LAST STRESS PERIOD

 REUSING RIVS FROM LAST STRESS PERIOD

 REUSING RIVS FROM LAST STRESS PERIOD

 REUSING RCHS FROM LAST STRESS PERIOD
 UBDSV06 SAVING              DRN IN MODEL GWF_1            PACKAGE GWF_1           CONNECTED TO MODEL GWF_1            PACKAGE DRN_SYS1         ON UNIT   1019 AT TIME STEP      1, STRESS PERIOD     58
 UBDSV06 SAVING              RIV IN MODEL GWF_1            PACKAGE GWF_1           CONNECTED TO MODEL GWF_1            PACKAGE RIV_SYS1         ON UNIT   1019 AT TIME STEP      1, STRESS PERIOD     58
 UBDSV06 SAVING              RIV IN MODEL GWF_1            PACKAGE GWF_1           CONNECTED TO MODEL GWF_1            PACKAGE RIV_SYS2         ON UNIT   1019 AT TIME STEP      1, STRESS PERIOD     58

 HEAD WILL BE SAVED ON UNIT 1018 AT END OF TIME STEP    1, STRESS PERIOD   58


  VOLUME BUDGET FOR ENTIRE MODEL AT END OF TIME STEP    1, STRESS PERIOD  58
  ---------------------------------------------------------------------------------------------------

     CUMULATIVE VOLUME      L**3       RATES FOR THIS TIME STEP      L**3/T          PACKAGE NAME    
     ------------------                 ------------------------                     ----------------

           IN:                                      IN:
           ---                                      ---
              STO-SS =       71108.3099                STO-SS =         349.9451     STORAGE                          
                 WEL =       45876.9682                   WEL =         936.7749     RIV_CORR                         
                 DRN =           0.0000                   DRN =           0.0000     DRN_SYS1                         
                 RIV =       38785.0039                   RIV =         768.1687     RIV_SYS1                         
                 RIV =           0.0000                   RIV =           0.0000     RIV_SYS2                         
                 RCH =       99483.0261                   RCH =         612.9944     RCH_MSW                          

            TOTAL IN =      255253.3082              TOTAL IN =        2667.8831

          OUT:                                     OUT:
          ----                                     ----
              STO-SS =       37635.1195                STO-SS =         203.9533     STORAGE                          
                 WEL =       76341.2582                   WEL =         763.5299     RIV_CORR                         
                 DRN =       15919.4001                   DRN =         244.0295     DRN_SYS1                         
                 RIV =       66122.1646                   RIV =         794.5500     RIV_SYS1                         
                 RIV =       43186.2923                   RIV =         658.1259     RIV_SYS2                         
                 RCH =       16049.5740                   RCH =           3.6738     RCH_MSW                          

           TOTAL OUT =      255253.8087             TOTAL OUT =        2667.8624

            IN - OUT =          -0.5005              IN - OUT =       2.0688E-02

 PERCENT DISCREPANCY =          -0.00     PERCENT DISCREPANCY =           0.00




         TIME SUMMARY AT END OF TIME STEP    1 IN STRESS PERIOD   58
                    SECONDS     MINUTES      HOURS       DAYS        YEARS
                    -----------------------------------------------------------
   TIME STEP LENGTH  86400.      1440.0      24.000      1.0000     2.73785E-03
 STRESS PERIOD TIME  86400.      1440.0      24.000      1.0000     2.73785E-03
         TOTAL TIME 5.01120E+06  83520.      1392.0      58.000     0.15880    


end timestep


start timestep kper="59" kstp="1" mode="normal"

 #Stressperiod Save Options

 BEGIN READING OUTPUT CONTROL FOR STRESS PERIOD 59
      ALL TIME STEPS WILL BE SAVED
      ALL TIME STEPS WILL BE SAVED

 END READING OUTPUT CONTROL FOR STRESS PERIOD 59


 PROCESSING STORAGE PERIOD DATA
 END PROCESSING STORAGE PERIOD DATA


 STRESS PERIOD 59 IS TRANSIENT


 REUSING WELS FROM LAST STRESS PERIOD

 REUSING DRNS FROM LAST STRESS PERIOD

 REUSING RIVS FROM LAST STRESS PERIOD

 REUSING RIVS FROM LAST STRESS PERIOD

 REUSING RCHS FROM LAST STRESS PERIOD
 UBDSV06 SAVING              DRN IN MODEL GWF_1            PACKAGE GWF_1           CONNECTED TO MODEL GWF_1            PACKAGE DRN_SYS1         ON UNIT   1019 AT TIME STEP      1, STRESS PERIOD     59
 UBDSV06 SAVING              RIV IN MODEL GWF_1            PACKAGE GWF_1           CONNECTED TO MODEL GWF_1            PACKAGE RIV_SYS1         ON UNIT   1019 AT TIME STEP      1, STRESS PERIOD     59
 UBDSV06 SAVING              RIV IN MODEL GWF_1            PACKAGE GWF_1           CONNECTED TO MODEL GWF_1            PACKAGE RIV_SYS2         ON UNIT   1019 AT TIME STEP      1, STRESS PERIOD     59

 HEAD WILL BE SAVED ON UNIT 1018 AT END OF TIME STEP    1, STRESS PERIOD   59


  VOLUME BUDGET FOR ENTIRE MODEL AT END OF TIME STEP    1, STRESS PERIOD  59
  ---------------------------------------------------------------------------------------------------

     CUMULATIVE VOLUME      L**3       RATES FOR THIS TIME STEP      L**3/T          PACKAGE NAME    
     ------------------                 ------------------------                     ----------------

           IN:                                      IN:
           ---                                      ---
              STO-SS =       71298.9313                STO-SS =         190.6213     STORAGE                          
                 WEL =       46645.1369                   WEL =         768.1687     RIV_CORR                         
                 DRN =           0.0000                   DRN =           0.0000     DRN_SYS1                         
                 RIV =       39373.3716                   RIV =         588.3678     RIV_SYS1                         
                 RIV =           0.0000                   RIV =           0.0000     RIV_SYS2                         
                 RCH =      101376.3487                   RCH =        1893.3225     RCH_MSW                          

            TOTAL IN =      258693.7885              TOTAL IN =        3440.4803

          OUT:                                     OUT:
          ----                                     ----
              STO-SS =       38407.4465                STO-SS =         772.3270     STORAGE                          
                 WEL =       77135.8083                   WEL =         794.5500     RIV_CORR                         
                 DRN =       16163.8692                   DRN =         244.4692     DRN_SYS1                         
                 RIV =       67092.3998                   RIV =         970.2352     RIV_SYS1                         
                 RIV =       43845.1883                   RIV =         658.8961     RIV_SYS2                         
                 RCH =       16049.5740                   RCH =           0.0000     RCH_MSW                          

           TOTAL OUT =      258694.2861             TOTAL OUT =        3440.4774

            IN - OUT =          -0.4976              IN - OUT =       2.8482E-03

 PERCENT DISCREPANCY =          -0.00     PERCENT DISCREPANCY =           0.00




         TIME SUMMARY AT END OF TIME STEP    1 IN STRESS PERIOD   59
                    SECONDS     MINUTES      HOURS       DAYS        YEARS
                    -----------------------------------------------------------
   TIME STEP LENGTH  86400.      1440.0      24.000      1.0000     2.73785E-03
 STRESS PERIOD TIME  86400.      1440.0      24.000      1.0000     2.73785E-03
         TOTAL TIME 5.09760E+06  84960.      1416.0      59.000     0.16153    


end timestep


start timestep kper="60" kstp="1" mode="normal"

 #Stressperiod Save Options

 BEGIN READING OUTPUT CONTROL FOR STRESS PERIOD 60
      ALL TIME STEPS WILL BE SAVED
      ALL TIME STEPS WILL BE SAVED

 END READING OUTPUT CONTROL FOR STRESS PERIOD 60


 PROCESSING STORAGE PERIOD DATA
 END PROCESSING STORAGE PERIOD DATA


 STRESS PERIOD 60 IS TRANSIENT


 REUSING WELS FROM LAST STRESS PERIOD

 REUSING DRNS FROM LAST STRESS PERIOD

 REUSING RIVS FROM LAST STRESS PERIOD

 REUSING RIVS FROM LAST STRESS PERIOD

 REUSING RCHS FROM LAST STRESS PERIOD
 UBDSV06 SAVING              DRN IN MODEL GWF_1            PACKAGE GWF_1           CONNECTED TO MODEL GWF_1            PACKAGE DRN_SYS1         ON UNIT   1019 AT TIME STEP      1, STRESS PERIOD     60
 UBDSV06 SAVING              RIV IN MODEL GWF_1            PACKAGE GWF_1           CONNECTED TO MODEL GWF_1            PACKAGE RIV_SYS1         ON UNIT   1019 AT TIME STEP      1, STRESS PERIOD     60
 UBDSV06 SAVING              RIV IN MODEL GWF_1            PACKAGE GWF_1           CONNECTED TO MODEL GWF_1            PACKAGE RIV_SYS2         ON UNIT   1019 AT TIME STEP      1, STRESS PERIOD     60

 HEAD WILL BE SAVED ON UNIT 1018 AT END OF TIME STEP    1, STRESS PERIOD   60


  VOLUME BUDGET FOR ENTIRE MODEL AT END OF TIME STEP    1, STRESS PERIOD  60
  ---------------------------------------------------------------------------------------------------

     CUMULATIVE VOLUME      L**3       RATES FOR THIS TIME STEP      L**3/T          PACKAGE NAME    
     ------------------                 ------------------------                     ----------------

           IN:                                      IN:
           ---                                      ---
              STO-SS =       71676.5231                STO-SS =         377.5918     STORAGE                          
                 WEL =       47233.5047                   WEL =         588.3678     RIV_CORR                         
                 DRN =           0.0000                   DRN =           0.0000     DRN_SYS1                         
                 RIV =       40260.4535                   RIV =         887.0819     RIV_SYS1                         
                 RIV =           0.0000                   RIV =           0.0000     RIV_SYS2                         
                 RCH =      102326.6869                   RCH =         950.3383     RCH_MSW                          

            TOTAL IN =      261497.1682              TOTAL IN =        2803.3797

          OUT:                                     OUT:
          ----                                     ----
              STO-SS =       38555.9652                STO-SS =         148.5187     STORAGE                          
                 WEL =       78106.0435                   WEL =         970.2352     RIV_CORR                         
                 DRN =       16408.7931                   DRN =         244.9239     DRN_SYS1                         
                 RIV =       67872.3773                   RIV =         779.9775     RIV_SYS1                         
                 RIV =       44504.9065                   RIV =         659.7182     RIV_SYS2                         
                 RCH =       16049.5740                   RCH =           0.0000     RCH_MSW                          

           TOTAL OUT =      261497.6596             TOTAL OUT =        2803.3735

            IN - OUT =          -0.4913              IN - OUT =       6.2698E-03

 PERCENT DISCREPANCY =          -0.00     PERCENT DISCREPANCY =           0.00




         TIME SUMMARY AT END OF TIME STEP    1 IN STRESS PERIOD   60
                    SECONDS     MINUTES      HOURS       DAYS        YEARS
                    -----------------------------------------------------------
   TIME STEP LENGTH  86400.      1440.0      24.000      1.0000     2.73785E-03
 STRESS PERIOD TIME  86400.      1440.0      24.000      1.0000     2.73785E-03
         TOTAL TIME 5.18400E+06  86400.      1440.0      60.000     0.16427    


end timestep


start timestep kper="61" kstp="1" mode="normal"

 #Stressperiod Save Options

 BEGIN READING OUTPUT CONTROL FOR STRESS PERIOD 61
      ALL TIME STEPS WILL BE SAVED
      ALL TIME STEPS WILL BE SAVED

 END READING OUTPUT CONTROL FOR STRESS PERIOD 61


 PROCESSING STORAGE PERIOD DATA
 END PROCESSING STORAGE PERIOD DATA


 STRESS PERIOD 61 IS TRANSIENT


 REUSING WELS FROM LAST STRESS PERIOD

 REUSING DRNS FROM LAST STRESS PERIOD

 REUSING RIVS FROM LAST STRESS PERIOD

 REUSING RIVS FROM LAST STRESS PERIOD

 REUSING RCHS FROM LAST STRESS PERIOD
 UBDSV06 SAVING              DRN IN MODEL GWF_1            PACKAGE GWF_1           CONNECTED TO MODEL GWF_1            PACKAGE DRN_SYS1         ON UNIT   1019 AT TIME STEP      1, STRESS PERIOD     61
 UBDSV06 SAVING              RIV IN MODEL GWF_1            PACKAGE GWF_1           CONNECTED TO MODEL GWF_1            PACKAGE RIV_SYS1         ON UNIT   1019 AT TIME STEP      1, STRESS PERIOD     61
 UBDSV06 SAVING              RIV IN MODEL GWF_1            PACKAGE GWF_1           CONNECTED TO MODEL GWF_1            PACKAGE RIV_SYS2         ON UNIT   1019 AT TIME STEP      1, STRESS PERIOD     61

 HEAD WILL BE SAVED ON UNIT 1018 AT END OF TIME STEP    1, STRESS PERIOD   61


  VOLUME BUDGET FOR ENTIRE MODEL AT END OF TIME STEP    1, STRESS PERIOD  61
  ---------------------------------------------------------------------------------------------------

     CUMULATIVE VOLUME      L**3       RATES FOR THIS TIME STEP      L**3/T          PACKAGE NAME    
     ------------------                 ------------------------                     ----------------

           IN:                                      IN:
           ---                                      ---
              STO-SS =       71725.6066                STO-SS =          49.0835     STORAGE                          
                 WEL =       48120.5866                   WEL =         887.0819     RIV_CORR                         
                 DRN =           0.0000                   DRN =           0.0000     DRN_SYS1                         
                 RIV =       40799.7434                   RIV =         539.2899     RIV_SYS1                         
                 RIV =           0.0000                   RIV =           0.0000     RIV_SYS2                         
                 RCH =      104530.2114                   RCH =        2203.5245     RCH_MSW                          

            TOTAL IN =      265176.1479              TOTAL IN =        3678.9797

          OUT:                                     OUT:
          ----                                     ----
              STO-SS =       39486.5587                STO-SS =         930.5935     STORAGE                          
                 WEL =       78886.0210                   WEL =         779.9775     RIV_CORR                         
                 DRN =       16655.0412                   DRN =         246.2481     DRN_SYS1                         
                 RIV =       68931.9786                   RIV =        1059.6013     RIV_SYS1                         
                 RIV =       45167.4036                   RIV =         662.4971     RIV_SYS2                         
                 RCH =       16049.5740                   RCH =           0.0000     RCH_MSW                          

           TOTAL OUT =      265176.5771             TOTAL OUT =        3678.9175

            IN - OUT =          -0.4292              IN - OUT =       6.2187E-02

 PERCENT DISCREPANCY =          -0.00     PERCENT DISCREPANCY =           0.00




         TIME SUMMARY AT END OF TIME STEP    1 IN STRESS PERIOD   61
                    SECONDS     MINUTES      HOURS       DAYS        YEARS
                    -----------------------------------------------------------
   TIME STEP LENGTH  86400.      1440.0      24.000      1.0000     2.73785E-03
 STRESS PERIOD TIME  86400.      1440.0      24.000      1.0000     2.73785E-03
         TOTAL TIME 5.27040E+06  87840.      1464.0      61.000     0.16701    


end timestep


start timestep kper="62" kstp="1" mode="normal"

 #Stressperiod Save Options

 BEGIN READING OUTPUT CONTROL FOR STRESS PERIOD 62
      ALL TIME STEPS WILL BE SAVED
      ALL TIME STEPS WILL BE SAVED

 END READING OUTPUT CONTROL FOR STRESS PERIOD 62


 PROCESSING STORAGE PERIOD DATA
 END PROCESSING STORAGE PERIOD DATA


 STRESS PERIOD 62 IS TRANSIENT


 REUSING WELS FROM LAST STRESS PERIOD

 REUSING DRNS FROM LAST STRESS PERIOD

 REUSING RIVS FROM LAST STRESS PERIOD

 REUSING RIVS FROM LAST STRESS PERIOD

 REUSING RCHS FROM LAST STRESS PERIOD
 UBDSV06 SAVING              DRN IN MODEL GWF_1            PACKAGE GWF_1           CONNECTED TO MODEL GWF_1            PACKAGE DRN_SYS1         ON UNIT   1019 AT TIME STEP      1, STRESS PERIOD     62
 UBDSV06 SAVING              RIV IN MODEL GWF_1            PACKAGE GWF_1           CONNECTED TO MODEL GWF_1            PACKAGE RIV_SYS1         ON UNIT   1019 AT TIME STEP      1, STRESS PERIOD     62
 UBDSV06 SAVING              RIV IN MODEL GWF_1            PACKAGE GWF_1           CONNECTED TO MODEL GWF_1            PACKAGE RIV_SYS2         ON UNIT   1019 AT TIME STEP      1, STRESS PERIOD     62

 HEAD WILL BE SAVED ON UNIT 1018 AT END OF TIME STEP    1, STRESS PERIOD   62


  VOLUME BUDGET FOR ENTIRE MODEL AT END OF TIME STEP    1, STRESS PERIOD  62
  ---------------------------------------------------------------------------------------------------

     CUMULATIVE VOLUME      L**3       RATES FOR THIS TIME STEP      L**3/T          PACKAGE NAME    
     ------------------                 ------------------------                     ----------------

           IN:                                      IN:
           ---                                      ---
              STO-SS =       71735.4812                STO-SS =           9.8746     STORAGE                          
                 WEL =       48659.8764                   WEL =         539.2899     RIV_CORR                         
                 DRN =           0.0000                   DRN =           0.0000     DRN_SYS1                         
                 RIV =       41288.9006                   RIV =         489.1573     RIV_SYS1                         
                 RIV =           0.0000                   RIV =           0.0000     RIV_SYS2                         
                 RCH =      107975.7234                   RCH =        3445.5119     RCH_MSW                          

            TOTAL IN =      269659.9816              TOTAL IN =        4483.8337

          OUT:                                     OUT:
          ----                                     ----
              STO-SS =       40905.9180                STO-SS =        1419.3593     STORAGE                          
                 WEL =       79945.6222                   WEL =        1059.6013     RIV_CORR                         
                 DRN =       16904.3683                   DRN =         249.3271     DRN_SYS1                         
                 RIV =       70018.1423                   RIV =        1086.1637     RIV_SYS1                         
                 RIV =       45836.6638                   RIV =         669.2602     RIV_SYS2                         
                 RCH =       16049.5740                   RCH =           0.0000     RCH_MSW                          

           TOTAL OUT =      269660.2886             TOTAL OUT =        4483.7115

            IN - OUT =          -0.3070              IN - OUT =           0.1221

 PERCENT DISCREPANCY =          -0.00     PERCENT DISCREPANCY =           0.00




         TIME SUMMARY AT END OF TIME STEP    1 IN STRESS PERIOD   62
                    SECONDS     MINUTES      HOURS       DAYS        YEARS
                    -----------------------------------------------------------
   TIME STEP LENGTH  86400.      1440.0      24.000      1.0000     2.73785E-03
 STRESS PERIOD TIME  86400.      1440.0      24.000      1.0000     2.73785E-03
         TOTAL TIME 5.35680E+06  89280.      1488.0      62.000     0.16975    


end timestep


start timestep kper="63" kstp="1" mode="normal"

 #Stressperiod Save Options

 BEGIN READING OUTPUT CONTROL FOR STRESS PERIOD 63
      ALL TIME STEPS WILL BE SAVED
      ALL TIME STEPS WILL BE SAVED

 END READING OUTPUT CONTROL FOR STRESS PERIOD 63


 PROCESSING STORAGE PERIOD DATA
 END PROCESSING STORAGE PERIOD DATA


 STRESS PERIOD 63 IS TRANSIENT


 REUSING WELS FROM LAST STRESS PERIOD

 REUSING DRNS FROM LAST STRESS PERIOD

 REUSING RIVS FROM LAST STRESS PERIOD

 REUSING RIVS FROM LAST STRESS PERIOD

 REUSING RCHS FROM LAST STRESS PERIOD
 UBDSV06 SAVING              DRN IN MODEL GWF_1            PACKAGE GWF_1           CONNECTED TO MODEL GWF_1            PACKAGE DRN_SYS1         ON UNIT   1019 AT TIME STEP      1, STRESS PERIOD     63
 UBDSV06 SAVING              RIV IN MODEL GWF_1            PACKAGE GWF_1           CONNECTED TO MODEL GWF_1            PACKAGE RIV_SYS1         ON UNIT   1019 AT TIME STEP      1, STRESS PERIOD     63
 UBDSV06 SAVING              RIV IN MODEL GWF_1            PACKAGE GWF_1           CONNECTED TO MODEL GWF_1            PACKAGE RIV_SYS2         ON UNIT   1019 AT TIME STEP      1, STRESS PERIOD     63

 HEAD WILL BE SAVED ON UNIT 1018 AT END OF TIME STEP    1, STRESS PERIOD   63


  VOLUME BUDGET FOR ENTIRE MODEL AT END OF TIME STEP    1, STRESS PERIOD  63
  ---------------------------------------------------------------------------------------------------

     CUMULATIVE VOLUME      L**3       RATES FOR THIS TIME STEP      L**3/T          PACKAGE NAME    
     ------------------                 ------------------------                     ----------------

           IN:                                      IN:
           ---                                      ---
              STO-SS =       72261.4575                STO-SS =         525.9763     STORAGE                          
                 WEL =       49149.0337                   WEL =         489.1573     RIV_CORR                         
                 DRN =           0.0000                   DRN =           0.0000     DRN_SYS1                         
                 RIV =       42087.1953                   RIV =         798.2947     RIV_SYS1                         
                 RIV =           0.0000                   RIV =           0.0000     RIV_SYS2                         
                 RCH =      109612.7456                   RCH =        1637.0222     RCH_MSW                          

            TOTAL IN =      273110.4320              TOTAL IN =        3450.4505

          OUT:                                     OUT:
          ----                                     ----
              STO-SS =       41424.3336                STO-SS =         518.4156     STORAGE                          
                 WEL =       81031.7859                   WEL =        1086.1637     RIV_CORR                         
                 DRN =       17155.2323                   DRN =         250.8640     DRN_SYS1                         
                 RIV =       70860.0742                   RIV =         841.9320     RIV_SYS1                         
                 RIV =       46509.6036                   RIV =         672.9398     RIV_SYS2                         
                 RCH =       16129.7234                   RCH =          80.1495     RCH_MSW                          

           TOTAL OUT =      273110.7530             TOTAL OUT =        3450.4645

            IN - OUT =          -0.3210              IN - OUT =      -1.3999E-02

 PERCENT DISCREPANCY =          -0.00     PERCENT DISCREPANCY =          -0.00




         TIME SUMMARY AT END OF TIME STEP    1 IN STRESS PERIOD   63
                    SECONDS     MINUTES      HOURS       DAYS        YEARS
                    -----------------------------------------------------------
   TIME STEP LENGTH  86400.      1440.0      24.000      1.0000     2.73785E-03
 STRESS PERIOD TIME  86400.      1440.0      24.000      1.0000     2.73785E-03
         TOTAL TIME 5.44320E+06  90720.      1512.0      63.000     0.17248    


end timestep


start timestep kper="64" kstp="1" mode="normal"

 #Stressperiod Save Options

 BEGIN READING OUTPUT CONTROL FOR STRESS PERIOD 64
      ALL TIME STEPS WILL BE SAVED
      ALL TIME STEPS WILL BE SAVED

 END READING OUTPUT CONTROL FOR STRESS PERIOD 64


 PROCESSING STORAGE PERIOD DATA
 END PROCESSING STORAGE PERIOD DATA


 STRESS PERIOD 64 IS TRANSIENT


 REUSING WELS FROM LAST STRESS PERIOD

 REUSING DRNS FROM LAST STRESS PERIOD

 REUSING RIVS FROM LAST STRESS PERIOD

 REUSING RIVS FROM LAST STRESS PERIOD

 REUSING RCHS FROM LAST STRESS PERIOD
 UBDSV06 SAVING              DRN IN MODEL GWF_1            PACKAGE GWF_1           CONNECTED TO MODEL GWF_1            PACKAGE DRN_SYS1         ON UNIT   1019 AT TIME STEP      1, STRESS PERIOD     64
 UBDSV06 SAVING              RIV IN MODEL GWF_1            PACKAGE GWF_1           CONNECTED TO MODEL GWF_1            PACKAGE RIV_SYS1         ON UNIT   1019 AT TIME STEP      1, STRESS PERIOD     64
 UBDSV06 SAVING              RIV IN MODEL GWF_1            PACKAGE GWF_1           CONNECTED TO MODEL GWF_1            PACKAGE RIV_SYS2         ON UNIT   1019 AT TIME STEP      1, STRESS PERIOD     64

 HEAD WILL BE SAVED ON UNIT 1018 AT END OF TIME STEP    1, STRESS PERIOD   64


  VOLUME BUDGET FOR ENTIRE MODEL AT END OF TIME STEP    1, STRESS PERIOD  64
  ---------------------------------------------------------------------------------------------------

     CUMULATIVE VOLUME      L**3       RATES FOR THIS TIME STEP      L**3/T          PACKAGE NAME    
     ------------------                 ------------------------                     ----------------

           IN:                                      IN:
           ---                                      ---
              STO-SS =       72494.7562                STO-SS =         233.2987     STORAGE                          
                 WEL =       49947.3283                   WEL =         798.2947     RIV_CORR                         
                 DRN =           0.0000                   DRN =           0.0000     DRN_SYS1                         
                 RIV =       42752.4915                   RIV =         665.2963     RIV_SYS1                         
                 RIV =           0.0000                   RIV =           0.0000     RIV_SYS2                         
                 RCH =      110899.2932                   RCH =        1286.5476     RCH_MSW                          

            TOTAL IN =      276093.8693              TOTAL IN =        2983.4372

          OUT:                                     OUT:
          ----                                     ----
              STO-SS =       41765.5203                STO-SS =         341.1867     STORAGE                          
                 WEL =       81873.7179                   WEL =         841.9320     RIV_CORR                         
                 DRN =       17406.5350                   DRN =         251.3028     DRN_SYS1                         
                 RIV =       71710.7795                   RIV =         850.7052     RIV_SYS1                         
                 RIV =       47183.7846                   RIV =         674.1810     RIV_SYS2                         
                 RCH =       16153.8458                   RCH =          24.1224     RCH_MSW                          

           TOTAL OUT =      276094.1831             TOTAL OUT =        2983.4300

            IN - OUT =          -0.3138              IN - OUT =       7.2208E-03

 PERCENT DISCREPANCY =          -0.00     PERCENT DISCREPANCY =           0.00




         TIME SUMMARY AT END OF TIME STEP    1 IN STRESS PERIOD   64
                    SECONDS     MINUTES      HOURS       DAYS        YEARS
                    -----------------------------------------------------------
   TIME STEP LENGTH  86400.      1440.0      24.000      1.0000     2.73785E-03
 STRESS PERIOD TIME  86400.      1440.0      24.000      1.0000     2.73785E-03
         TOTAL TIME 5.52960E+06  92160.      1536.0      64.000     0.17522    


end timestep


start timestep kper="65" kstp="1" mode="normal"

 #Stressperiod Save Options

 BEGIN READING OUTPUT CONTROL FOR STRESS PERIOD 65
      ALL TIME STEPS WILL BE SAVED
      ALL TIME STEPS WILL BE SAVED

 END READING OUTPUT CONTROL FOR STRESS PERIOD 65


 PROCESSING STORAGE PERIOD DATA
 END PROCESSING STORAGE PERIOD DATA


 STRESS PERIOD 65 IS TRANSIENT


 REUSING WELS FROM LAST STRESS PERIOD

 REUSING DRNS FROM LAST STRESS PERIOD

 REUSING RIVS FROM LAST STRESS PERIOD

 REUSING RIVS FROM LAST STRESS PERIOD

 REUSING RCHS FROM LAST STRESS PERIOD
 UBDSV06 SAVING              DRN IN MODEL GWF_1            PACKAGE GWF_1           CONNECTED TO MODEL GWF_1            PACKAGE DRN_SYS1         ON UNIT   1019 AT TIME STEP      1, STRESS PERIOD     65
 UBDSV06 SAVING              RIV IN MODEL GWF_1            PACKAGE GWF_1           CONNECTED TO MODEL GWF_1            PACKAGE RIV_SYS1         ON UNIT   1019 AT TIME STEP      1, STRESS PERIOD     65
 UBDSV06 SAVING              RIV IN MODEL GWF_1            PACKAGE GWF_1           CONNECTED TO MODEL GWF_1            PACKAGE RIV_SYS2         ON UNIT   1019 AT TIME STEP      1, STRESS PERIOD     65

 HEAD WILL BE SAVED ON UNIT 1018 AT END OF TIME STEP    1, STRESS PERIOD   65


  VOLUME BUDGET FOR ENTIRE MODEL AT END OF TIME STEP    1, STRESS PERIOD  65
  ---------------------------------------------------------------------------------------------------

     CUMULATIVE VOLUME      L**3       RATES FOR THIS TIME STEP      L**3/T          PACKAGE NAME    
     ------------------                 ------------------------                     ----------------

           IN:                                      IN:
           ---                                      ---
              STO-SS =       72925.1765                STO-SS =         430.4204     STORAGE                          
                 WEL =       50612.6246                   WEL =         665.2963     RIV_CORR                         
                 DRN =           0.0000                   DRN =           0.0000     DRN_SYS1                         
                 RIV =       43583.2726                   RIV =         830.7810     RIV_SYS1                         
                 RIV =           0.0000                   RIV =           0.0000     RIV_SYS2                         
                 RCH =      111854.5898                   RCH =         955.2965     RCH_MSW                          

            TOTAL IN =      278975.6635              TOTAL IN =        2881.7942

          OUT:                                     OUT:
          ----                                     ----
              STO-SS =       41923.2653                STO-SS =         157.7450     STORAGE                          
                 WEL =       82724.4231                   WEL =         850.7052     RIV_CORR                         
                 DRN =       17657.5349                   DRN =         250.9999     DRN_SYS1                         
                 RIV =       72525.2923                   RIV =         814.5129     RIV_SYS1                         
                 RIV =       47857.4036                   RIV =         673.6190     RIV_SYS2                         
                 RCH =       16288.0634                   RCH =         134.2177     RCH_MSW                          

           TOTAL OUT =      278975.9827             TOTAL OUT =        2881.7996

            IN - OUT =          -0.3192              IN - OUT =      -5.4180E-03

 PERCENT DISCREPANCY =          -0.00     PERCENT DISCREPANCY =          -0.00




         TIME SUMMARY AT END OF TIME STEP    1 IN STRESS PERIOD   65
                    SECONDS     MINUTES      HOURS       DAYS        YEARS
                    -----------------------------------------------------------
   TIME STEP LENGTH  86400.      1440.0      24.000      1.0000     2.73785E-03
 STRESS PERIOD TIME  86400.      1440.0      24.000      1.0000     2.73785E-03
         TOTAL TIME 5.61600E+06  93600.      1560.0      65.000     0.17796    


end timestep


start timestep kper="66" kstp="1" mode="normal"

 #Stressperiod Save Options

 BEGIN READING OUTPUT CONTROL FOR STRESS PERIOD 66
      ALL TIME STEPS WILL BE SAVED
      ALL TIME STEPS WILL BE SAVED

 END READING OUTPUT CONTROL FOR STRESS PERIOD 66


 PROCESSING STORAGE PERIOD DATA
 END PROCESSING STORAGE PERIOD DATA


 STRESS PERIOD 66 IS TRANSIENT


 REUSING WELS FROM LAST STRESS PERIOD

 REUSING DRNS FROM LAST STRESS PERIOD

 REUSING RIVS FROM LAST STRESS PERIOD

 REUSING RIVS FROM LAST STRESS PERIOD

 REUSING RCHS FROM LAST STRESS PERIOD
 UBDSV06 SAVING              DRN IN MODEL GWF_1            PACKAGE GWF_1           CONNECTED TO MODEL GWF_1            PACKAGE DRN_SYS1         ON UNIT   1019 AT TIME STEP      1, STRESS PERIOD     66
 UBDSV06 SAVING              RIV IN MODEL GWF_1            PACKAGE GWF_1           CONNECTED TO MODEL GWF_1            PACKAGE RIV_SYS1         ON UNIT   1019 AT TIME STEP      1, STRESS PERIOD     66
 UBDSV06 SAVING              RIV IN MODEL GWF_1            PACKAGE GWF_1           CONNECTED TO MODEL GWF_1            PACKAGE RIV_SYS2         ON UNIT   1019 AT TIME STEP      1, STRESS PERIOD     66

 HEAD WILL BE SAVED ON UNIT 1018 AT END OF TIME STEP    1, STRESS PERIOD   66


  VOLUME BUDGET FOR ENTIRE MODEL AT END OF TIME STEP    1, STRESS PERIOD  66
  ---------------------------------------------------------------------------------------------------

     CUMULATIVE VOLUME      L**3       RATES FOR THIS TIME STEP      L**3/T          PACKAGE NAME    
     ------------------                 ------------------------                     ----------------

           IN:                                      IN:
           ---                                      ---
              STO-SS =       73188.9110                STO-SS =         263.7345     STORAGE                          
                 WEL =       51443.4056                   WEL =         830.7810     RIV_CORR                         
                 DRN =           0.0000                   DRN =           0.0000     DRN_SYS1                         
                 RIV =       44335.7509                   RIV =         752.4783     RIV_SYS1                         
                 RIV =           0.0000                   RIV =           0.0000     RIV_SYS2                         
                 RCH =      112661.5902                   RCH =         807.0004     RCH_MSW                          

            TOTAL IN =      281629.6577              TOTAL IN =        2653.9943

          OUT:                                     OUT:
          ----                                     ----
              STO-SS =       42021.0251                STO-SS =          97.7598     STORAGE                          
                 WEL =       83538.9360                   WEL =         814.5129     RIV_CORR                         
                 DRN =       17907.9766                   DRN =         250.4417     DRN_SYS1                         
                 RIV =       73336.6681                   RIV =         811.3758     RIV_SYS1                         
                 RIV =       48529.7952                   RIV =         672.3916     RIV_SYS2                         
                 RCH =       16295.6158                   RCH =           7.5524     RCH_MSW                          

           TOTAL OUT =      281630.0169             TOTAL OUT =        2654.0342

            IN - OUT =          -0.3591              IN - OUT =      -3.9894E-02

 PERCENT DISCREPANCY =          -0.00     PERCENT DISCREPANCY =          -0.00




         TIME SUMMARY AT END OF TIME STEP    1 IN STRESS PERIOD   66
                    SECONDS     MINUTES      HOURS       DAYS        YEARS
                    -----------------------------------------------------------
   TIME STEP LENGTH  86400.      1440.0      24.000      1.0000     2.73785E-03
 STRESS PERIOD TIME  86400.      1440.0      24.000      1.0000     2.73785E-03
         TOTAL TIME 5.70240E+06  95040.      1584.0      66.000     0.18070    


end timestep


start timestep kper="67" kstp="1" mode="normal"

 #Stressperiod Save Options

 BEGIN READING OUTPUT CONTROL FOR STRESS PERIOD 67
      ALL TIME STEPS WILL BE SAVED
      ALL TIME STEPS WILL BE SAVED

 END READING OUTPUT CONTROL FOR STRESS PERIOD 67


 PROCESSING STORAGE PERIOD DATA
 END PROCESSING STORAGE PERIOD DATA


 STRESS PERIOD 67 IS TRANSIENT


 REUSING WELS FROM LAST STRESS PERIOD

 REUSING DRNS FROM LAST STRESS PERIOD

 REUSING RIVS FROM LAST STRESS PERIOD

 REUSING RIVS FROM LAST STRESS PERIOD

 REUSING RCHS FROM LAST STRESS PERIOD
 UBDSV06 SAVING              DRN IN MODEL GWF_1            PACKAGE GWF_1           CONNECTED TO MODEL GWF_1            PACKAGE DRN_SYS1         ON UNIT   1019 AT TIME STEP      1, STRESS PERIOD     67
 UBDSV06 SAVING              RIV IN MODEL GWF_1            PACKAGE GWF_1           CONNECTED TO MODEL GWF_1            PACKAGE RIV_SYS1         ON UNIT   1019 AT TIME STEP      1, STRESS PERIOD     67
 UBDSV06 SAVING              RIV IN MODEL GWF_1            PACKAGE GWF_1           CONNECTED TO MODEL GWF_1            PACKAGE RIV_SYS2         ON UNIT   1019 AT TIME STEP      1, STRESS PERIOD     67

 HEAD WILL BE SAVED ON UNIT 1018 AT END OF TIME STEP    1, STRESS PERIOD   67


  VOLUME BUDGET FOR ENTIRE MODEL AT END OF TIME STEP    1, STRESS PERIOD  67
  ---------------------------------------------------------------------------------------------------

     CUMULATIVE VOLUME      L**3       RATES FOR THIS TIME STEP      L**3/T          PACKAGE NAME    
     ------------------                 ------------------------                     ----------------

           IN:                                      IN:
           ---                                      ---
              STO-SS =       73512.5983                STO-SS =         323.6873     STORAGE                          
                 WEL =       52195.8840                   WEL =         752.4783     RIV_CORR                         
                 DRN =           0.0000                   DRN =           0.0000     DRN_SYS1                         
                 RIV =       45165.8462                   RIV =         830.0953     RIV_SYS1                         
                 RIV =           0.0000                   RIV =           0.0000     RIV_SYS2                         
                 RCH =      113345.7795                   RCH =         684.1893     RCH_MSW                          

            TOTAL IN =      284220.1080              TOTAL IN =        2590.4503

          OUT:                                     OUT:
          ----                                     ----
              STO-SS =       42053.1528                STO-SS =          32.1277     STORAGE                          
                 WEL =       84350.3118                   WEL =         811.3758     RIV_CORR                         
                 DRN =       18157.7469                   DRN =         249.7703     DRN_SYS1                         
                 RIV =       74136.5291                   RIV =         799.8610     RIV_SYS1                         
                 RIV =       49200.6295                   RIV =         670.8343     RIV_SYS2                         
                 RCH =       16322.1112                   RCH =          26.4953     RCH_MSW                          

           TOTAL OUT =      284220.4813             TOTAL OUT =        2590.4644

            IN - OUT =          -0.3732              IN - OUT =      -1.4129E-02

 PERCENT DISCREPANCY =          -0.00     PERCENT DISCREPANCY =          -0.00




         TIME SUMMARY AT END OF TIME STEP    1 IN STRESS PERIOD   67
                    SECONDS     MINUTES      HOURS       DAYS        YEARS
                    -----------------------------------------------------------
   TIME STEP LENGTH  86400.      1440.0      24.000      1.0000     2.73785E-03
 STRESS PERIOD TIME  86400.      1440.0      24.000      1.0000     2.73785E-03
         TOTAL TIME 5.78880E+06  96480.      1608.0      67.000     0.18344    


end timestep


start timestep kper="68" kstp="1" mode="normal"

 #Stressperiod Save Options

 BEGIN READING OUTPUT CONTROL FOR STRESS PERIOD 68
      ALL TIME STEPS WILL BE SAVED
      ALL TIME STEPS WILL BE SAVED

 END READING OUTPUT CONTROL FOR STRESS PERIOD 68


 PROCESSING STORAGE PERIOD DATA
 END PROCESSING STORAGE PERIOD DATA


 STRESS PERIOD 68 IS TRANSIENT


 REUSING WELS FROM LAST STRESS PERIOD

 REUSING DRNS FROM LAST STRESS PERIOD

 REUSING RIVS FROM LAST STRESS PERIOD

 REUSING RIVS FROM LAST STRESS PERIOD

 REUSING RCHS FROM LAST STRESS PERIOD
 UBDSV06 SAVING              DRN IN MODEL GWF_1            PACKAGE GWF_1           CONNECTED TO MODEL GWF_1            PACKAGE DRN_SYS1         ON UNIT   1019 AT TIME STEP      1, STRESS PERIOD     68
 UBDSV06 SAVING              RIV IN MODEL GWF_1            PACKAGE GWF_1           CONNECTED TO MODEL GWF_1            PACKAGE RIV_SYS1         ON UNIT   1019 AT TIME STEP      1, STRESS PERIOD     68
 UBDSV06 SAVING              RIV IN MODEL GWF_1            PACKAGE GWF_1           CONNECTED TO MODEL GWF_1            PACKAGE RIV_SYS2         ON UNIT   1019 AT TIME STEP      1, STRESS PERIOD     68

 HEAD WILL BE SAVED ON UNIT 1018 AT END OF TIME STEP    1, STRESS PERIOD   68


  VOLUME BUDGET FOR ENTIRE MODEL AT END OF TIME STEP    1, STRESS PERIOD  68
  ---------------------------------------------------------------------------------------------------

     CUMULATIVE VOLUME      L**3       RATES FOR THIS TIME STEP      L**3/T          PACKAGE NAME    
     ------------------                 ------------------------                     ----------------

           IN:                                      IN:
           ---                                      ---
              STO-SS =       73795.3607                STO-SS =         282.7624     STORAGE                          
                 WEL =       53025.9793                   WEL =         830.0953     RIV_CORR                         
                 DRN =           0.0000                   DRN =           0.0000     DRN_SYS1                         
                 RIV =       45981.4943                   RIV =         815.6480     RIV_SYS1                         
                 RIV =           0.0000                   RIV =           0.0000     RIV_SYS2                         
                 RCH =      113946.6074                   RCH =         600.8279     RCH_MSW                          

            TOTAL IN =      286749.4417              TOTAL IN =        2529.3337

          OUT:                                     OUT:
          ----                                     ----
              STO-SS =       42067.3573                STO-SS =          14.2045     STORAGE                          
                 WEL =       85150.1727                   WEL =         799.8610     RIV_CORR                         
                 DRN =       18406.8198                   DRN =         249.0729     DRN_SYS1                         
                 RIV =       74930.4181                   RIV =         793.8890     RIV_SYS1                         
                 RIV =       49869.8286                   RIV =         669.1990     RIV_SYS2                         
                 RCH =       16325.2221                   RCH =           3.1109     RCH_MSW                          

           TOTAL OUT =      286749.8185             TOTAL OUT =        2529.3373

            IN - OUT =          -0.3768              IN - OUT =      -3.5948E-03

 PERCENT DISCREPANCY =          -0.00     PERCENT DISCREPANCY =          -0.00




         TIME SUMMARY AT END OF TIME STEP    1 IN STRESS PERIOD   68
                    SECONDS     MINUTES      HOURS       DAYS        YEARS
                    -----------------------------------------------------------
   TIME STEP LENGTH  86400.      1440.0      24.000      1.0000     2.73785E-03
 STRESS PERIOD TIME  86400.      1440.0      24.000      1.0000     2.73785E-03
         TOTAL TIME 5.87520E+06  97920.      1632.0      68.000     0.18617    


end timestep


start timestep kper="69" kstp="1" mode="normal"

 #Stressperiod Save Options

 BEGIN READING OUTPUT CONTROL FOR STRESS PERIOD 69
      ALL TIME STEPS WILL BE SAVED
      ALL TIME STEPS WILL BE SAVED

 END READING OUTPUT CONTROL FOR STRESS PERIOD 69


 PROCESSING STORAGE PERIOD DATA
 END PROCESSING STORAGE PERIOD DATA


 STRESS PERIOD 69 IS TRANSIENT


 REUSING WELS FROM LAST STRESS PERIOD

 REUSING DRNS FROM LAST STRESS PERIOD

 REUSING RIVS FROM LAST STRESS PERIOD

 REUSING RIVS FROM LAST STRESS PERIOD

 REUSING RCHS FROM LAST STRESS PERIOD
 UBDSV06 SAVING              DRN IN MODEL GWF_1            PACKAGE GWF_1           CONNECTED TO MODEL GWF_1            PACKAGE DRN_SYS1         ON UNIT   1019 AT TIME STEP      1, STRESS PERIOD     69
 UBDSV06 SAVING              RIV IN MODEL GWF_1            PACKAGE GWF_1           CONNECTED TO MODEL GWF_1            PACKAGE RIV_SYS1         ON UNIT   1019 AT TIME STEP      1, STRESS PERIOD     69
 UBDSV06 SAVING              RIV IN MODEL GWF_1            PACKAGE GWF_1           CONNECTED TO MODEL GWF_1            PACKAGE RIV_SYS2         ON UNIT   1019 AT TIME STEP      1, STRESS PERIOD     69

 HEAD WILL BE SAVED ON UNIT 1018 AT END OF TIME STEP    1, STRESS PERIOD   69


  VOLUME BUDGET FOR ENTIRE MODEL AT END OF TIME STEP    1, STRESS PERIOD  69
  ---------------------------------------------------------------------------------------------------

     CUMULATIVE VOLUME      L**3       RATES FOR THIS TIME STEP      L**3/T          PACKAGE NAME    
     ------------------                 ------------------------                     ----------------

           IN:                                      IN:
           ---                                      ---
              STO-SS =       74281.7924                STO-SS =         486.4317     STORAGE                          
                 WEL =       53841.6273                   WEL =         815.6480     RIV_CORR                         
                 DRN =           0.0000                   DRN =           0.0000     DRN_SYS1                         
                 RIV =       46927.7446                   RIV =         946.2503     RIV_SYS1                         
                 RIV =           0.0000                   RIV =           0.0000     RIV_SYS2                         
                 RCH =      114433.2635                   RCH =         486.6561     RCH_MSW                          

            TOTAL IN =      289484.4278              TOTAL IN =        2734.9861

          OUT:                                     OUT:
          ----                                     ----
              STO-SS =       42067.8044                STO-SS =           0.4471     STORAGE                          
                 WEL =       85944.0617                   WEL =         793.8890     RIV_CORR                         
                 DRN =       18655.0513                   DRN =         248.2315     DRN_SYS1                         
                 RIV =       75715.7134                   RIV =         785.2953     RIV_SYS1                         
                 RIV =       50537.0277                   RIV =         667.1991     RIV_SYS2                         
                 RCH =       16565.1616                   RCH =         239.9395     RCH_MSW                          

           TOTAL OUT =      289484.8201             TOTAL OUT =        2735.0016

            IN - OUT =          -0.3923              IN - OUT =      -1.5437E-02

 PERCENT DISCREPANCY =          -0.00     PERCENT DISCREPANCY =          -0.00




         TIME SUMMARY AT END OF TIME STEP    1 IN STRESS PERIOD   69
                    SECONDS     MINUTES      HOURS       DAYS        YEARS
                    -----------------------------------------------------------
   TIME STEP LENGTH  86400.      1440.0      24.000      1.0000     2.73785E-03
 STRESS PERIOD TIME  86400.      1440.0      24.000      1.0000     2.73785E-03
         TOTAL TIME 5.96160E+06  99360.      1656.0      69.000     0.18891    


end timestep


start timestep kper="70" kstp="1" mode="normal"

 #Stressperiod Save Options

 BEGIN READING OUTPUT CONTROL FOR STRESS PERIOD 70
      ALL TIME STEPS WILL BE SAVED
      ALL TIME STEPS WILL BE SAVED

 END READING OUTPUT CONTROL FOR STRESS PERIOD 70


 PROCESSING STORAGE PERIOD DATA
 END PROCESSING STORAGE PERIOD DATA


 STRESS PERIOD 70 IS TRANSIENT


 REUSING WELS FROM LAST STRESS PERIOD

 REUSING DRNS FROM LAST STRESS PERIOD

 REUSING RIVS FROM LAST STRESS PERIOD

 REUSING RIVS FROM LAST STRESS PERIOD

 REUSING RCHS FROM LAST STRESS PERIOD
 UBDSV06 SAVING              DRN IN MODEL GWF_1            PACKAGE GWF_1           CONNECTED TO MODEL GWF_1            PACKAGE DRN_SYS1         ON UNIT   1019 AT TIME STEP      1, STRESS PERIOD     70
 UBDSV06 SAVING              RIV IN MODEL GWF_1            PACKAGE GWF_1           CONNECTED TO MODEL GWF_1            PACKAGE RIV_SYS1         ON UNIT   1019 AT TIME STEP      1, STRESS PERIOD     70
 UBDSV06 SAVING              RIV IN MODEL GWF_1            PACKAGE GWF_1           CONNECTED TO MODEL GWF_1            PACKAGE RIV_SYS2         ON UNIT   1019 AT TIME STEP      1, STRESS PERIOD     70

 HEAD WILL BE SAVED ON UNIT 1018 AT END OF TIME STEP    1, STRESS PERIOD   70


  VOLUME BUDGET FOR ENTIRE MODEL AT END OF TIME STEP    1, STRESS PERIOD  70
  ---------------------------------------------------------------------------------------------------

     CUMULATIVE VOLUME      L**3       RATES FOR THIS TIME STEP      L**3/T          PACKAGE NAME    
     ------------------                 ------------------------                     ----------------

           IN:                                      IN:
           ---                                      ---
              STO-SS =       74783.0097                STO-SS =         501.2173     STORAGE                          
                 WEL =       54787.8776                   WEL =         946.2503     RIV_CORR                         
                 DRN =           0.0000                   DRN =           0.0000     DRN_SYS1                         
                 RIV =       47882.0946                   RIV =         954.3500     RIV_SYS1                         
                 RIV =           0.0000                   RIV =           0.0000     RIV_SYS2                         
                 RCH =      114827.1610                   RCH =         393.8974     RCH_MSW                          

            TOTAL IN =      292280.1428              TOTAL IN =        2795.7150

          OUT:                                     OUT:
          ----                                     ----
              STO-SS =       42069.8329                STO-SS =           2.0284     STORAGE                          
                 WEL =       86729.3570                   WEL =         785.2953     RIV_CORR                         
                 DRN =       18902.3113                   DRN =         247.2600     DRN_SYS1                         
                 RIV =       76493.3552                   RIV =         777.6419     RIV_SYS1                         
                 RIV =       51201.9178                   RIV =         664.8902     RIV_SYS2                         
                 RCH =       16883.7778                   RCH =         318.6162     RCH_MSW                          

           TOTAL OUT =      292280.5520             TOTAL OUT =        2795.7319

            IN - OUT =          -0.4092              IN - OUT =      -1.6952E-02

 PERCENT DISCREPANCY =          -0.00     PERCENT DISCREPANCY =          -0.00




         TIME SUMMARY AT END OF TIME STEP    1 IN STRESS PERIOD   70
                    SECONDS     MINUTES      HOURS       DAYS        YEARS
                    -----------------------------------------------------------
   TIME STEP LENGTH  86400.      1440.0      24.000      1.0000     2.73785E-03
 STRESS PERIOD TIME  86400.      1440.0      24.000      1.0000     2.73785E-03
         TOTAL TIME 6.04800E+06 1.00800E+05  1680.0      70.000     0.19165    


end timestep


start timestep kper="71" kstp="1" mode="normal"

 #Stressperiod Save Options

 BEGIN READING OUTPUT CONTROL FOR STRESS PERIOD 71
      ALL TIME STEPS WILL BE SAVED
      ALL TIME STEPS WILL BE SAVED

 END READING OUTPUT CONTROL FOR STRESS PERIOD 71


 PROCESSING STORAGE PERIOD DATA
 END PROCESSING STORAGE PERIOD DATA


 STRESS PERIOD 71 IS TRANSIENT


 REUSING WELS FROM LAST STRESS PERIOD

 REUSING DRNS FROM LAST STRESS PERIOD

 REUSING RIVS FROM LAST STRESS PERIOD

 REUSING RIVS FROM LAST STRESS PERIOD

 REUSING RCHS FROM LAST STRESS PERIOD
 UBDSV06 SAVING              DRN IN MODEL GWF_1            PACKAGE GWF_1           CONNECTED TO MODEL GWF_1            PACKAGE DRN_SYS1         ON UNIT   1019 AT TIME STEP      1, STRESS PERIOD     71
 UBDSV06 SAVING              RIV IN MODEL GWF_1            PACKAGE GWF_1           CONNECTED TO MODEL GWF_1            PACKAGE RIV_SYS1         ON UNIT   1019 AT TIME STEP      1, STRESS PERIOD     71
 UBDSV06 SAVING              RIV IN MODEL GWF_1            PACKAGE GWF_1           CONNECTED TO MODEL GWF_1            PACKAGE RIV_SYS2         ON UNIT   1019 AT TIME STEP      1, STRESS PERIOD     71

 HEAD WILL BE SAVED ON UNIT 1018 AT END OF TIME STEP    1, STRESS PERIOD   71


  VOLUME BUDGET FOR ENTIRE MODEL AT END OF TIME STEP    1, STRESS PERIOD  71
  ---------------------------------------------------------------------------------------------------

     CUMULATIVE VOLUME      L**3       RATES FOR THIS TIME STEP      L**3/T          PACKAGE NAME    
     ------------------                 ------------------------                     ----------------

           IN:                                      IN:
           ---                                      ---
              STO-SS =       75291.0983                STO-SS =         508.0886     STORAGE                          
                 WEL =       55742.2276                   WEL =         954.3500     RIV_CORR                         
                 DRN =           0.0000                   DRN =           0.0000     DRN_SYS1                         
                 RIV =       48854.3031                   RIV =         972.2085     RIV_SYS1                         
                 RIV =           0.0000                   RIV =           0.0000     RIV_SYS2                         
                 RCH =      115152.9030                   RCH =         325.7420     RCH_MSW                          

            TOTAL IN =      295040.5320              TOTAL IN =        2760.3892

          OUT:                                     OUT:
          ----                                     ----
              STO-SS =       42069.8509                STO-SS =       1.8007E-02     STORAGE                          
                 WEL =       87506.9989                   WEL =         777.6419     RIV_CORR                         
                 DRN =       19148.5530                   DRN =         246.2417     DRN_SYS1                         
                 RIV =       77263.9078                   RIV =         770.5525     RIV_SYS1                         
                 RIV =       51864.3745                   RIV =         662.4567     RIV_SYS2                         
                 RCH =       17187.3084                   RCH =         303.5306     RCH_MSW                          

           TOTAL OUT =      295040.9934             TOTAL OUT =        2760.4413

            IN - OUT =          -0.4614              IN - OUT =      -5.2196E-02

 PERCENT DISCREPANCY =          -0.00     PERCENT DISCREPANCY =          -0.00




         TIME SUMMARY AT END OF TIME STEP    1 IN STRESS PERIOD   71
                    SECONDS     MINUTES      HOURS       DAYS        YEARS
                    -----------------------------------------------------------
   TIME STEP LENGTH  86400.      1440.0      24.000      1.0000     2.73785E-03
 STRESS PERIOD TIME  86400.      1440.0      24.000      1.0000     2.73785E-03
         TOTAL TIME 6.13440E+06 1.02240E+05  1704.0      71.000     0.19439    


end timestep


start timestep kper="72" kstp="1" mode="normal"

 #Stressperiod Save Options

 BEGIN READING OUTPUT CONTROL FOR STRESS PERIOD 72
      ALL TIME STEPS WILL BE SAVED
      ALL TIME STEPS WILL BE SAVED

 END READING OUTPUT CONTROL FOR STRESS PERIOD 72


 PROCESSING STORAGE PERIOD DATA
 END PROCESSING STORAGE PERIOD DATA


 STRESS PERIOD 72 IS TRANSIENT


 REUSING WELS FROM LAST STRESS PERIOD

 REUSING DRNS FROM LAST STRESS PERIOD

 REUSING RIVS FROM LAST STRESS PERIOD

 REUSING RIVS FROM LAST STRESS PERIOD

 REUSING RCHS FROM LAST STRESS PERIOD
 UBDSV06 SAVING              DRN IN MODEL GWF_1            PACKAGE GWF_1           CONNECTED TO MODEL GWF_1            PACKAGE DRN_SYS1         ON UNIT   1019 AT TIME STEP      1, STRESS PERIOD     72
 UBDSV06 SAVING              RIV IN MODEL GWF_1            PACKAGE GWF_1           CONNECTED TO MODEL GWF_1            PACKAGE RIV_SYS1         ON UNIT   1019 AT TIME STEP      1, STRESS PERIOD     72
 UBDSV06 SAVING              RIV IN MODEL GWF_1            PACKAGE GWF_1           CONNECTED TO MODEL GWF_1            PACKAGE RIV_SYS2         ON UNIT   1019 AT TIME STEP      1, STRESS PERIOD     72

 HEAD WILL BE SAVED ON UNIT 1018 AT END OF TIME STEP    1, STRESS PERIOD   72


  VOLUME BUDGET FOR ENTIRE MODEL AT END OF TIME STEP    1, STRESS PERIOD  72
  ---------------------------------------------------------------------------------------------------

     CUMULATIVE VOLUME      L**3       RATES FOR THIS TIME STEP      L**3/T          PACKAGE NAME    
     ------------------                 ------------------------                     ----------------

           IN:                                      IN:
           ---                                      ---
              STO-SS =       75572.1892                STO-SS =         281.0908     STORAGE                          
                 WEL =       56714.4361                   WEL =         972.2085     RIV_CORR                         
                 DRN =           0.0000                   DRN =           0.0000     DRN_SYS1                         
                 RIV =       49589.1468                   RIV =         734.8438     RIV_SYS1                         
                 RIV =           0.0000                   RIV =           0.0000     RIV_SYS2                         
                 RCH =      115948.6633                   RCH =         795.7604     RCH_MSW                          

            TOTAL IN =      297824.4354              TOTAL IN =        2783.9035

          OUT:                                     OUT:
          ----                                     ----
              STO-SS =       42339.2513                STO-SS =         269.4004     STORAGE                          
                 WEL =       88277.5514                   WEL =         770.5525     RIV_CORR                         
                 DRN =       19394.1314                   DRN =         245.5785     DRN_SYS1                         
                 RIV =       78089.2027                   RIV =         825.2949     RIV_SYS1                         
                 RIV =       52525.3191                   RIV =         660.9446     RIV_SYS2                         
                 RCH =       17199.4257                   RCH =          12.1173     RCH_MSW                          

           TOTAL OUT =      297824.8817             TOTAL OUT =        2783.8883

            IN - OUT =          -0.4462              IN - OUT =       1.5172E-02

 PERCENT DISCREPANCY =          -0.00     PERCENT DISCREPANCY =           0.00




         TIME SUMMARY AT END OF TIME STEP    1 IN STRESS PERIOD   72
                    SECONDS     MINUTES      HOURS       DAYS        YEARS
                    -----------------------------------------------------------
   TIME STEP LENGTH  86400.      1440.0      24.000      1.0000     2.73785E-03
 STRESS PERIOD TIME  86400.      1440.0      24.000      1.0000     2.73785E-03
         TOTAL TIME 6.22080E+06 1.03680E+05  1728.0      72.000     0.19713    


end timestep


start timestep kper="73" kstp="1" mode="normal"

 #Stressperiod Save Options

 BEGIN READING OUTPUT CONTROL FOR STRESS PERIOD 73
      ALL TIME STEPS WILL BE SAVED
      ALL TIME STEPS WILL BE SAVED

 END READING OUTPUT CONTROL FOR STRESS PERIOD 73


 PROCESSING STORAGE PERIOD DATA
 END PROCESSING STORAGE PERIOD DATA


 STRESS PERIOD 73 IS TRANSIENT


 REUSING WELS FROM LAST STRESS PERIOD

 REUSING DRNS FROM LAST STRESS PERIOD

 REUSING RIVS FROM LAST STRESS PERIOD

 REUSING RIVS FROM LAST STRESS PERIOD

 REUSING RCHS FROM LAST STRESS PERIOD
 UBDSV06 SAVING              DRN IN MODEL GWF_1            PACKAGE GWF_1           CONNECTED TO MODEL GWF_1            PACKAGE DRN_SYS1         ON UNIT   1019 AT TIME STEP      1, STRESS PERIOD     73
 UBDSV06 SAVING              RIV IN MODEL GWF_1            PACKAGE GWF_1           CONNECTED TO MODEL GWF_1            PACKAGE RIV_SYS1         ON UNIT   1019 AT TIME STEP      1, STRESS PERIOD     73
 UBDSV06 SAVING              RIV IN MODEL GWF_1            PACKAGE GWF_1           CONNECTED TO MODEL GWF_1            PACKAGE RIV_SYS2         ON UNIT   1019 AT TIME STEP      1, STRESS PERIOD     73

 HEAD WILL BE SAVED ON UNIT 1018 AT END OF TIME STEP    1, STRESS PERIOD   73


  VOLUME BUDGET FOR ENTIRE MODEL AT END OF TIME STEP    1, STRESS PERIOD  73
  ---------------------------------------------------------------------------------------------------

     CUMULATIVE VOLUME      L**3       RATES FOR THIS TIME STEP      L**3/T          PACKAGE NAME    
     ------------------                 ------------------------                     ----------------

           IN:                                      IN:
           ---                                      ---
              STO-SS =       75980.0732                STO-SS =         407.8840     STORAGE                          
                 WEL =       57449.2799                   WEL =         734.8438     RIV_CORR                         
                 DRN =           0.0000                   DRN =           0.0000     DRN_SYS1                         
                 RIV =       50560.2833                   RIV =         971.1365     RIV_SYS1                         
                 RIV =           0.0000                   RIV =           0.0000     RIV_SYS2                         
                 RCH =      116338.7504                   RCH =         390.0871     RCH_MSW                          

            TOTAL IN =      300328.3868              TOTAL IN =        2503.9514

          OUT:                                     OUT:
          ----                                     ----
              STO-SS =       42339.2513                STO-SS =           0.0000     STORAGE                          
                 WEL =       89102.8463                   WEL =         825.2949     RIV_CORR                         
                 DRN =       19639.1486                   DRN =         245.0171     DRN_SYS1                         
                 RIV =       78855.7822                   RIV =         766.5795     RIV_SYS1                         
                 RIV =       53184.9298                   RIV =         659.6107     RIV_SYS2                         
                 RCH =       17206.9293                   RCH =           7.5036     RCH_MSW                          

           TOTAL OUT =      300328.8876             TOTAL OUT =        2504.0059

            IN - OUT =          -0.5008              IN - OUT =      -5.4509E-02

 PERCENT DISCREPANCY =          -0.00     PERCENT DISCREPANCY =          -0.00




         TIME SUMMARY AT END OF TIME STEP    1 IN STRESS PERIOD   73
                    SECONDS     MINUTES      HOURS       DAYS        YEARS
                    -----------------------------------------------------------
   TIME STEP LENGTH  86400.      1440.0      24.000      1.0000     2.73785E-03
 STRESS PERIOD TIME  86400.      1440.0      24.000      1.0000     2.73785E-03
         TOTAL TIME 6.30720E+06 1.05120E+05  1752.0      73.000     0.19986    


end timestep


start timestep kper="74" kstp="1" mode="normal"

 #Stressperiod Save Options

 BEGIN READING OUTPUT CONTROL FOR STRESS PERIOD 74
      ALL TIME STEPS WILL BE SAVED
      ALL TIME STEPS WILL BE SAVED

 END READING OUTPUT CONTROL FOR STRESS PERIOD 74


 PROCESSING STORAGE PERIOD DATA
 END PROCESSING STORAGE PERIOD DATA


 STRESS PERIOD 74 IS TRANSIENT


 REUSING WELS FROM LAST STRESS PERIOD

 REUSING DRNS FROM LAST STRESS PERIOD

 REUSING RIVS FROM LAST STRESS PERIOD

 REUSING RIVS FROM LAST STRESS PERIOD

 REUSING RCHS FROM LAST STRESS PERIOD
 UBDSV06 SAVING              DRN IN MODEL GWF_1            PACKAGE GWF_1           CONNECTED TO MODEL GWF_1            PACKAGE DRN_SYS1         ON UNIT   1019 AT TIME STEP      1, STRESS PERIOD     74
 UBDSV06 SAVING              RIV IN MODEL GWF_1            PACKAGE GWF_1           CONNECTED TO MODEL GWF_1            PACKAGE RIV_SYS1         ON UNIT   1019 AT TIME STEP      1, STRESS PERIOD     74
 UBDSV06 SAVING              RIV IN MODEL GWF_1            PACKAGE GWF_1           CONNECTED TO MODEL GWF_1            PACKAGE RIV_SYS2         ON UNIT   1019 AT TIME STEP      1, STRESS PERIOD     74

 HEAD WILL BE SAVED ON UNIT 1018 AT END OF TIME STEP    1, STRESS PERIOD   74


  VOLUME BUDGET FOR ENTIRE MODEL AT END OF TIME STEP    1, STRESS PERIOD  74
  ---------------------------------------------------------------------------------------------------

     CUMULATIVE VOLUME      L**3       RATES FOR THIS TIME STEP      L**3/T          PACKAGE NAME    
     ------------------                 ------------------------                     ----------------

           IN:                                      IN:
           ---                                      ---
              STO-SS =       75981.0281                STO-SS =           0.9549     STORAGE                          
                 WEL =       58420.4164                   WEL =         971.1365     RIV_CORR                         
                 DRN =           0.0000                   DRN =           0.0000     DRN_SYS1                         
                 RIV =       50936.8746                   RIV =         376.5912     RIV_SYS1                         
                 RIV =           0.0000                   RIV =           0.0000     RIV_SYS2                         
                 RCH =      120915.6302                   RCH =        4576.8798     RCH_MSW                          

            TOTAL IN =      306253.9493              TOTAL IN =        5925.5624

          OUT:                                     OUT:
          ----                                     ----
              STO-SS =       44992.3079                STO-SS =        2653.0566     STORAGE                          
                 WEL =       89869.4259                   WEL =         766.5795     RIV_CORR                         
                 DRN =       19887.0938                   DRN =         247.9452     DRN_SYS1                         
                 RIV =       80447.3950                   RIV =        1591.6128     RIV_SYS1                         
                 RIV =       53851.2649                   RIV =         666.3351     RIV_SYS2                         
                 RCH =       17206.9293                   RCH =           0.0000     RCH_MSW                          

           TOTAL OUT =      306254.4168             TOTAL OUT =        5925.5292

            IN - OUT =          -0.4675              IN - OUT =       3.3213E-02

 PERCENT DISCREPANCY =          -0.00     PERCENT DISCREPANCY =           0.00




         TIME SUMMARY AT END OF TIME STEP    1 IN STRESS PERIOD   74
                    SECONDS     MINUTES      HOURS       DAYS        YEARS
                    -----------------------------------------------------------
   TIME STEP LENGTH  86400.      1440.0      24.000      1.0000     2.73785E-03
 STRESS PERIOD TIME  86400.      1440.0      24.000      1.0000     2.73785E-03
         TOTAL TIME 6.39360E+06 1.06560E+05  1776.0      74.000     0.20260    


end timestep


start timestep kper="75" kstp="1" mode="normal"

 #Stressperiod Save Options

 BEGIN READING OUTPUT CONTROL FOR STRESS PERIOD 75
      ALL TIME STEPS WILL BE SAVED
      ALL TIME STEPS WILL BE SAVED

 END READING OUTPUT CONTROL FOR STRESS PERIOD 75


 PROCESSING STORAGE PERIOD DATA
 END PROCESSING STORAGE PERIOD DATA


 STRESS PERIOD 75 IS TRANSIENT


 REUSING WELS FROM LAST STRESS PERIOD

 REUSING DRNS FROM LAST STRESS PERIOD

 REUSING RIVS FROM LAST STRESS PERIOD

 REUSING RIVS FROM LAST STRESS PERIOD

 REUSING RCHS FROM LAST STRESS PERIOD
 UBDSV06 SAVING              DRN IN MODEL GWF_1            PACKAGE GWF_1           CONNECTED TO MODEL GWF_1            PACKAGE DRN_SYS1         ON UNIT   1019 AT TIME STEP      1, STRESS PERIOD     75
 UBDSV06 SAVING              RIV IN MODEL GWF_1            PACKAGE GWF_1           CONNECTED TO MODEL GWF_1            PACKAGE RIV_SYS1         ON UNIT   1019 AT TIME STEP      1, STRESS PERIOD     75
 UBDSV06 SAVING              RIV IN MODEL GWF_1            PACKAGE GWF_1           CONNECTED TO MODEL GWF_1            PACKAGE RIV_SYS2         ON UNIT   1019 AT TIME STEP      1, STRESS PERIOD     75

 HEAD WILL BE SAVED ON UNIT 1018 AT END OF TIME STEP    1, STRESS PERIOD   75


  VOLUME BUDGET FOR ENTIRE MODEL AT END OF TIME STEP    1, STRESS PERIOD  75
  ---------------------------------------------------------------------------------------------------

     CUMULATIVE VOLUME      L**3       RATES FOR THIS TIME STEP      L**3/T          PACKAGE NAME    
     ------------------                 ------------------------                     ----------------

           IN:                                      IN:
           ---                                      ---
              STO-SS =       76986.4274                STO-SS =        1005.3994     STORAGE                          
                 WEL =       58797.0076                   WEL =         376.5912     RIV_CORR                         
                 DRN =           0.0000                   DRN =           0.0000     DRN_SYS1                         
                 RIV =       51909.6832                   RIV =         972.8086     RIV_SYS1                         
                 RIV =           0.0000                   RIV =           0.0000     RIV_SYS2                         
                 RCH =      122667.2743                   RCH =        1751.6441     RCH_MSW                          

            TOTAL IN =      310360.3926              TOTAL IN =        4106.4433

          OUT:                                     OUT:
          ----                                     ----
              STO-SS =       45569.7286                STO-SS =         577.4207     STORAGE                          
                 WEL =       91461.0387                   WEL =        1591.6128     RIV_CORR                         
                 DRN =       20137.0624                   DRN =         249.9686     DRN_SYS1                         
                 RIV =       81270.9281                   RIV =         823.5331     RIV_SYS1                         
                 RIV =       54522.3950                   RIV =         671.1301     RIV_SYS2                         
                 RCH =       17399.6974                   RCH =         192.7681     RCH_MSW                          

           TOTAL OUT =      310360.8502             TOTAL OUT =        4106.4334

            IN - OUT =          -0.4577              IN - OUT =       9.8845E-03

 PERCENT DISCREPANCY =          -0.00     PERCENT DISCREPANCY =           0.00




         TIME SUMMARY AT END OF TIME STEP    1 IN STRESS PERIOD   75
                    SECONDS     MINUTES      HOURS       DAYS        YEARS
                    -----------------------------------------------------------
   TIME STEP LENGTH  86400.      1440.0      24.000      1.0000     2.73785E-03
 STRESS PERIOD TIME  86400.      1440.0      24.000      1.0000     2.73785E-03
         TOTAL TIME 6.48000E+06 1.08000E+05  1800.0      75.000     0.20534    


end timestep


start timestep kper="76" kstp="1" mode="normal"

 #Stressperiod Save Options

 BEGIN READING OUTPUT CONTROL FOR STRESS PERIOD 76
      ALL TIME STEPS WILL BE SAVED
      ALL TIME STEPS WILL BE SAVED

 END READING OUTPUT CONTROL FOR STRESS PERIOD 76


 PROCESSING STORAGE PERIOD DATA
 END PROCESSING STORAGE PERIOD DATA


 STRESS PERIOD 76 IS TRANSIENT


 REUSING WELS FROM LAST STRESS PERIOD

 REUSING DRNS FROM LAST STRESS PERIOD

 REUSING RIVS FROM LAST STRESS PERIOD

 REUSING RIVS FROM LAST STRESS PERIOD

 REUSING RCHS FROM LAST STRESS PERIOD
 UBDSV06 SAVING              DRN IN MODEL GWF_1            PACKAGE GWF_1           CONNECTED TO MODEL GWF_1            PACKAGE DRN_SYS1         ON UNIT   1019 AT TIME STEP      1, STRESS PERIOD     76
 UBDSV06 SAVING              RIV IN MODEL GWF_1            PACKAGE GWF_1           CONNECTED TO MODEL GWF_1            PACKAGE RIV_SYS1         ON UNIT   1019 AT TIME STEP      1, STRESS PERIOD     76
 UBDSV06 SAVING              RIV IN MODEL GWF_1            PACKAGE GWF_1           CONNECTED TO MODEL GWF_1            PACKAGE RIV_SYS2         ON UNIT   1019 AT TIME STEP      1, STRESS PERIOD     76

 HEAD WILL BE SAVED ON UNIT 1018 AT END OF TIME STEP    1, STRESS PERIOD   76


  VOLUME BUDGET FOR ENTIRE MODEL AT END OF TIME STEP    1, STRESS PERIOD  76
  ---------------------------------------------------------------------------------------------------

     CUMULATIVE VOLUME      L**3       RATES FOR THIS TIME STEP      L**3/T          PACKAGE NAME    
     ------------------                 ------------------------                     ----------------

           IN:                                      IN:
           ---                                      ---
              STO-SS =       77109.9665                STO-SS =         123.5390     STORAGE                          
                 WEL =       59769.8162                   WEL =         972.8086     RIV_CORR                         
                 DRN =           0.0000                   DRN =           0.0000     DRN_SYS1                         
                 RIV =       52522.6487                   RIV =         612.9655     RIV_SYS1                         
                 RIV =           0.0000                   RIV =           0.0000     RIV_SYS2                         
                 RCH =      124123.1883                   RCH =        1455.9139     RCH_MSW                          

            TOTAL IN =      313525.6196              TOTAL IN =        3165.2271

          OUT:                                     OUT:
          ----                                     ----
              STO-SS =       46063.4314                STO-SS =         493.7027     STORAGE                          
                 WEL =       92284.5718                   WEL =         823.5331     RIV_CORR                         
                 DRN =       20388.0253                   DRN =         250.9629     DRN_SYS1                         
                 RIV =       82188.3407                   RIV =         917.4126     RIV_SYS1                         
                 RIV =       55196.0851                   RIV =         673.6900     RIV_SYS2                         
                 RCH =       17405.6867                   RCH =           5.9892     RCH_MSW                          

           TOTAL OUT =      313526.1409             TOTAL OUT =        3165.2907

            IN - OUT =          -0.5213              IN - OUT =      -6.3590E-02

 PERCENT DISCREPANCY =          -0.00     PERCENT DISCREPANCY =          -0.00




         TIME SUMMARY AT END OF TIME STEP    1 IN STRESS PERIOD   76
                    SECONDS     MINUTES      HOURS       DAYS        YEARS
                    -----------------------------------------------------------
   TIME STEP LENGTH  86400.      1440.0      24.000      1.0000     2.73785E-03
 STRESS PERIOD TIME  86400.      1440.0      24.000      1.0000     2.73785E-03
         TOTAL TIME 6.56640E+06 1.09440E+05  1824.0      76.000     0.20808    


end timestep


start timestep kper="77" kstp="1" mode="normal"

 #Stressperiod Save Options

 BEGIN READING OUTPUT CONTROL FOR STRESS PERIOD 77
      ALL TIME STEPS WILL BE SAVED
      ALL TIME STEPS WILL BE SAVED

 END READING OUTPUT CONTROL FOR STRESS PERIOD 77


 PROCESSING STORAGE PERIOD DATA
 END PROCESSING STORAGE PERIOD DATA


 STRESS PERIOD 77 IS TRANSIENT


 REUSING WELS FROM LAST STRESS PERIOD

 REUSING DRNS FROM LAST STRESS PERIOD

 REUSING RIVS FROM LAST STRESS PERIOD

 REUSING RIVS FROM LAST STRESS PERIOD

 REUSING RCHS FROM LAST STRESS PERIOD
 UBDSV06 SAVING              DRN IN MODEL GWF_1            PACKAGE GWF_1           CONNECTED TO MODEL GWF_1            PACKAGE DRN_SYS1         ON UNIT   1019 AT TIME STEP      1, STRESS PERIOD     77
 UBDSV06 SAVING              RIV IN MODEL GWF_1            PACKAGE GWF_1           CONNECTED TO MODEL GWF_1            PACKAGE RIV_SYS1         ON UNIT   1019 AT TIME STEP      1, STRESS PERIOD     77
 UBDSV06 SAVING              RIV IN MODEL GWF_1            PACKAGE GWF_1           CONNECTED TO MODEL GWF_1            PACKAGE RIV_SYS2         ON UNIT   1019 AT TIME STEP      1, STRESS PERIOD     77

 HEAD WILL BE SAVED ON UNIT 1018 AT END OF TIME STEP    1, STRESS PERIOD   77


  VOLUME BUDGET FOR ENTIRE MODEL AT END OF TIME STEP    1, STRESS PERIOD  77
  ---------------------------------------------------------------------------------------------------

     CUMULATIVE VOLUME      L**3       RATES FOR THIS TIME STEP      L**3/T          PACKAGE NAME    
     ------------------                 ------------------------                     ----------------

           IN:                                      IN:
           ---                                      ---
              STO-SS =       77109.9665                STO-SS =           0.0000     STORAGE                          
                 WEL =       60382.7817                   WEL =         612.9655     RIV_CORR                         
                 DRN =           0.0000                   DRN =           0.0000     DRN_SYS1                         
                 RIV =       52808.6480                   RIV =         285.9993     RIV_SYS1                         
                 RIV =           0.0000                   RIV =           0.0000     RIV_SYS2                         
                 RCH =      131963.3158                   RCH =        7840.1276     RCH_MSW                          

            TOTAL IN =      322264.7120              TOTAL IN =        8739.0924

          OUT:                                     OUT:
          ----                                     ----
              STO-SS =       50938.6420                STO-SS =        4875.2106     STORAGE                          
                 WEL =       93201.9844                   WEL =         917.4126     RIV_CORR                         
                 DRN =       20647.6554                   DRN =         259.6301     DRN_SYS1                         
                 RIV =       84181.0377                   RIV =        1992.6970     RIV_SYS1                         
                 RIV =       55890.2016                   RIV =         694.1166     RIV_SYS2                         
                 RCH =       17405.6867                   RCH =           0.0000     RCH_MSW                          

           TOTAL OUT =      322265.2078             TOTAL OUT =        8739.0669

            IN - OUT =          -0.4957              IN - OUT =       2.5540E-02

 PERCENT DISCREPANCY =          -0.00     PERCENT DISCREPANCY =           0.00




         TIME SUMMARY AT END OF TIME STEP    1 IN STRESS PERIOD   77
                    SECONDS     MINUTES      HOURS       DAYS        YEARS
                    -----------------------------------------------------------
   TIME STEP LENGTH  86400.      1440.0      24.000      1.0000     2.73785E-03
 STRESS PERIOD TIME  86400.      1440.0      24.000      1.0000     2.73785E-03
         TOTAL TIME 6.65280E+06 1.10880E+05  1848.0      77.000     0.21081    


end timestep


start timestep kper="78" kstp="1" mode="normal"

 #Stressperiod Save Options

 BEGIN READING OUTPUT CONTROL FOR STRESS PERIOD 78
      ALL TIME STEPS WILL BE SAVED
      ALL TIME STEPS WILL BE SAVED

 END READING OUTPUT CONTROL FOR STRESS PERIOD 78


 PROCESSING STORAGE PERIOD DATA
 END PROCESSING STORAGE PERIOD DATA


 STRESS PERIOD 78 IS TRANSIENT


 REUSING WELS FROM LAST STRESS PERIOD

 REUSING DRNS FROM LAST STRESS PERIOD

 REUSING RIVS FROM LAST STRESS PERIOD

 REUSING RIVS FROM LAST STRESS PERIOD

 REUSING RCHS FROM LAST STRESS PERIOD
 UBDSV06 SAVING              DRN IN MODEL GWF_1            PACKAGE GWF_1           CONNECTED TO MODEL GWF_1            PACKAGE DRN_SYS1         ON UNIT   1019 AT TIME STEP      1, STRESS PERIOD     78
 UBDSV06 SAVING              RIV IN MODEL GWF_1            PACKAGE GWF_1           CONNECTED TO MODEL GWF_1            PACKAGE RIV_SYS1         ON UNIT   1019 AT TIME STEP      1, STRESS PERIOD     78
 UBDSV06 SAVING              RIV IN MODEL GWF_1            PACKAGE GWF_1           CONNECTED TO MODEL GWF_1            PACKAGE RIV_SYS2         ON UNIT   1019 AT TIME STEP      1, STRESS PERIOD     78

 HEAD WILL BE SAVED ON UNIT 1018 AT END OF TIME STEP    1, STRESS PERIOD   78


  VOLUME BUDGET FOR ENTIRE MODEL AT END OF TIME STEP    1, STRESS PERIOD  78
  ---------------------------------------------------------------------------------------------------

     CUMULATIVE VOLUME      L**3       RATES FOR THIS TIME STEP      L**3/T          PACKAGE NAME    
     ------------------                 ------------------------                     ----------------

           IN:                                      IN:
           ---                                      ---
              STO-SS =       77882.3675                STO-SS =         772.4010     STORAGE                          
                 WEL =       60668.7811                   WEL =         285.9993     RIV_CORR                         
                 DRN =           0.0000                   DRN =           0.0000     DRN_SYS1                         
                 RIV =       53325.6974                   RIV =         517.0494     RIV_SYS1                         
                 RIV =           0.0000                   RIV =           0.0000     RIV_SYS2                         
                 RCH =      137203.9430                   RCH =        5240.6271     RCH_MSW                          

            TOTAL IN =      329080.7889              TOTAL IN =        6816.0769

          OUT:                                     OUT:
          ----                                     ----
              STO-SS =       53341.5562                STO-SS =        2402.9142     STORAGE                          
                 WEL =       95194.6814                   WEL =        1992.6970     RIV_CORR                         
                 DRN =       20914.1643                   DRN =         266.5089     DRN_SYS1                         
                 RIV =       85348.7405                   RIV =        1167.7027     RIV_SYS1                         
                 RIV =       56601.9695                   RIV =         711.7679     RIV_SYS2                         
                 RCH =       17680.1693                   RCH =         274.4826     RCH_MSW                          

           TOTAL OUT =      329081.2811             TOTAL OUT =        6816.0734

            IN - OUT =          -0.4922              IN - OUT =       3.4925E-03

 PERCENT DISCREPANCY =          -0.00     PERCENT DISCREPANCY =           0.00




         TIME SUMMARY AT END OF TIME STEP    1 IN STRESS PERIOD   78
                    SECONDS     MINUTES      HOURS       DAYS        YEARS
                    -----------------------------------------------------------
   TIME STEP LENGTH  86400.      1440.0      24.000      1.0000     2.73785E-03
 STRESS PERIOD TIME  86400.      1440.0      24.000      1.0000     2.73785E-03
         TOTAL TIME 6.73920E+06 1.12320E+05  1872.0      78.000     0.21355    


end timestep


start timestep kper="79" kstp="1" mode="normal"

 #Stressperiod Save Options

 BEGIN READING OUTPUT CONTROL FOR STRESS PERIOD 79
      ALL TIME STEPS WILL BE SAVED
      ALL TIME STEPS WILL BE SAVED

 END READING OUTPUT CONTROL FOR STRESS PERIOD 79


 PROCESSING STORAGE PERIOD DATA
 END PROCESSING STORAGE PERIOD DATA


 STRESS PERIOD 79 IS TRANSIENT


 REUSING WELS FROM LAST STRESS PERIOD

 REUSING DRNS FROM LAST STRESS PERIOD

 REUSING RIVS FROM LAST STRESS PERIOD

 REUSING RIVS FROM LAST STRESS PERIOD

 REUSING RCHS FROM LAST STRESS PERIOD
 UBDSV06 SAVING              DRN IN MODEL GWF_1            PACKAGE GWF_1           CONNECTED TO MODEL GWF_1            PACKAGE DRN_SYS1         ON UNIT   1019 AT TIME STEP      1, STRESS PERIOD     79
 UBDSV06 SAVING              RIV IN MODEL GWF_1            PACKAGE GWF_1           CONNECTED TO MODEL GWF_1            PACKAGE RIV_SYS1         ON UNIT   1019 AT TIME STEP      1, STRESS PERIOD     79
 UBDSV06 SAVING              RIV IN MODEL GWF_1            PACKAGE GWF_1           CONNECTED TO MODEL GWF_1            PACKAGE RIV_SYS2         ON UNIT   1019 AT TIME STEP      1, STRESS PERIOD     79

 HEAD WILL BE SAVED ON UNIT 1018 AT END OF TIME STEP    1, STRESS PERIOD   79


  VOLUME BUDGET FOR ENTIRE MODEL AT END OF TIME STEP    1, STRESS PERIOD  79
  ---------------------------------------------------------------------------------------------------

     CUMULATIVE VOLUME      L**3       RATES FOR THIS TIME STEP      L**3/T          PACKAGE NAME    
     ------------------                 ------------------------                     ----------------

           IN:                                      IN:
           ---                                      ---
              STO-SS =       78427.2371                STO-SS =         544.8697     STORAGE                          
                 WEL =       61185.8304                   WEL =         517.0494     RIV_CORR                         
                 DRN =           0.0000                   DRN =           0.0000     DRN_SYS1                         
                 RIV =       53822.4461                   RIV =         496.7487     RIV_SYS1                         
                 RIV =           0.0000                   RIV =           0.0000     RIV_SYS2                         
                 RCH =      140107.5731                   RCH =        2903.6301     RCH_MSW                          

            TOTAL IN =      333543.0867              TOTAL IN =        4462.2978

          OUT:                                     OUT:
          ----                                     ----
              STO-SS =       54457.2280                STO-SS =        1115.6718     STORAGE                          
                 WEL =       96362.3841                   WEL =        1167.7027     RIV_CORR                         
                 DRN =       21182.7528                   DRN =         268.5885     DRN_SYS1                         
                 RIV =       86479.1218                   RIV =        1130.3813     RIV_SYS1                         
                 RIV =       57320.1455                   RIV =         718.1760     RIV_SYS2                         
                 RCH =       17742.0662                   RCH =          61.8969     RCH_MSW                          

           TOTAL OUT =      333543.6983             TOTAL OUT =        4462.4172

            IN - OUT =          -0.6116              IN - OUT =          -0.1194

 PERCENT DISCREPANCY =          -0.00     PERCENT DISCREPANCY =          -0.00




         TIME SUMMARY AT END OF TIME STEP    1 IN STRESS PERIOD   79
                    SECONDS     MINUTES      HOURS       DAYS        YEARS
                    -----------------------------------------------------------
   TIME STEP LENGTH  86400.      1440.0      24.000      1.0000     2.73785E-03
 STRESS PERIOD TIME  86400.      1440.0      24.000      1.0000     2.73785E-03
         TOTAL TIME 6.82560E+06 1.13760E+05  1896.0      79.000     0.21629    


end timestep


start timestep kper="80" kstp="1" mode="normal"

 #Stressperiod Save Options

 BEGIN READING OUTPUT CONTROL FOR STRESS PERIOD 80
      ALL TIME STEPS WILL BE SAVED
      ALL TIME STEPS WILL BE SAVED

 END READING OUTPUT CONTROL FOR STRESS PERIOD 80


 PROCESSING STORAGE PERIOD DATA
 END PROCESSING STORAGE PERIOD DATA


 STRESS PERIOD 80 IS TRANSIENT


 REUSING WELS FROM LAST STRESS PERIOD

 REUSING DRNS FROM LAST STRESS PERIOD

 REUSING RIVS FROM LAST STRESS PERIOD

 REUSING RIVS FROM LAST STRESS PERIOD

 REUSING RCHS FROM LAST STRESS PERIOD
 UBDSV06 SAVING              DRN IN MODEL GWF_1            PACKAGE GWF_1           CONNECTED TO MODEL GWF_1            PACKAGE DRN_SYS1         ON UNIT   1019 AT TIME STEP      1, STRESS PERIOD     80
 UBDSV06 SAVING              RIV IN MODEL GWF_1            PACKAGE GWF_1           CONNECTED TO MODEL GWF_1            PACKAGE RIV_SYS1         ON UNIT   1019 AT TIME STEP      1, STRESS PERIOD     80
 UBDSV06 SAVING              RIV IN MODEL GWF_1            PACKAGE GWF_1           CONNECTED TO MODEL GWF_1            PACKAGE RIV_SYS2         ON UNIT   1019 AT TIME STEP      1, STRESS PERIOD     80

 HEAD WILL BE SAVED ON UNIT 1018 AT END OF TIME STEP    1, STRESS PERIOD   80


  VOLUME BUDGET FOR ENTIRE MODEL AT END OF TIME STEP    1, STRESS PERIOD  80
  ---------------------------------------------------------------------------------------------------

     CUMULATIVE VOLUME      L**3       RATES FOR THIS TIME STEP      L**3/T          PACKAGE NAME    
     ------------------                 ------------------------                     ----------------

           IN:                                      IN:
           ---                                      ---
              STO-SS =       79162.0906                STO-SS =         734.8535     STORAGE                          
                 WEL =       61682.5791                   WEL =         496.7487     RIV_CORR                         
                 DRN =           0.0000                   DRN =           0.0000     DRN_SYS1                         
                 RIV =       54456.5035                   RIV =         634.0575     RIV_SYS1                         
                 RIV =           0.0000                   RIV =           0.0000     RIV_SYS2                         
                 RCH =      142028.1221                   RCH =        1920.5491     RCH_MSW                          

            TOTAL IN =      337329.2954              TOTAL IN =        3786.2087

          OUT:                                     OUT:
          ----                                     ----
              STO-SS =       54957.8568                STO-SS =         500.6288     STORAGE                          
                 WEL =       97492.7654                   WEL =        1130.3813     RIV_CORR                         
                 DRN =       21451.0383                   DRN =         268.2855     DRN_SYS1                         
                 RIV =       87468.6462                   RIV =         989.5245     RIV_SYS1                         
                 RIV =       58038.3662                   RIV =         718.2207     RIV_SYS2                         
                 RCH =       17921.3413                   RCH =         179.2752     RCH_MSW                          

           TOTAL OUT =      337330.0142             TOTAL OUT =        3786.3159

            IN - OUT =          -0.7188              IN - OUT =          -0.1072

 PERCENT DISCREPANCY =          -0.00     PERCENT DISCREPANCY =          -0.00




         TIME SUMMARY AT END OF TIME STEP    1 IN STRESS PERIOD   80
                    SECONDS     MINUTES      HOURS       DAYS        YEARS
                    -----------------------------------------------------------
   TIME STEP LENGTH  86400.      1440.0      24.000      1.0000     2.73785E-03
 STRESS PERIOD TIME  86400.      1440.0      24.000      1.0000     2.73785E-03
         TOTAL TIME 6.91200E+06 1.15200E+05  1920.0      80.000     0.21903    


end timestep


start timestep kper="81" kstp="1" mode="normal"

 #Stressperiod Save Options

 BEGIN READING OUTPUT CONTROL FOR STRESS PERIOD 81
      ALL TIME STEPS WILL BE SAVED
      ALL TIME STEPS WILL BE SAVED

 END READING OUTPUT CONTROL FOR STRESS PERIOD 81


 PROCESSING STORAGE PERIOD DATA
 END PROCESSING STORAGE PERIOD DATA


 STRESS PERIOD 81 IS TRANSIENT


 REUSING WELS FROM LAST STRESS PERIOD

 REUSING DRNS FROM LAST STRESS PERIOD

 REUSING RIVS FROM LAST STRESS PERIOD

 REUSING RIVS FROM LAST STRESS PERIOD

 REUSING RCHS FROM LAST STRESS PERIOD
 UBDSV06 SAVING              DRN IN MODEL GWF_1            PACKAGE GWF_1           CONNECTED TO MODEL GWF_1            PACKAGE DRN_SYS1         ON UNIT   1019 AT TIME STEP      1, STRESS PERIOD     81
 UBDSV06 SAVING              RIV IN MODEL GWF_1            PACKAGE GWF_1           CONNECTED TO MODEL GWF_1            PACKAGE RIV_SYS1         ON UNIT   1019 AT TIME STEP      1, STRESS PERIOD     81
 UBDSV06 SAVING              RIV IN MODEL GWF_1            PACKAGE GWF_1           CONNECTED TO MODEL GWF_1            PACKAGE RIV_SYS2         ON UNIT   1019 AT TIME STEP      1, STRESS PERIOD     81

 HEAD WILL BE SAVED ON UNIT 1018 AT END OF TIME STEP    1, STRESS PERIOD   81


  VOLUME BUDGET FOR ENTIRE MODEL AT END OF TIME STEP    1, STRESS PERIOD  81
  ---------------------------------------------------------------------------------------------------

     CUMULATIVE VOLUME      L**3       RATES FOR THIS TIME STEP      L**3/T          PACKAGE NAME    
     ------------------                 ------------------------                     ----------------

           IN:                                      IN:
           ---                                      ---
              STO-SS =       79459.9659                STO-SS =         297.8752     STORAGE                          
                 WEL =       62316.6366                   WEL =         634.0575     RIV_CORR                         
                 DRN =           0.0000                   DRN =           0.0000     DRN_SYS1                         
                 RIV =       54947.4921                   RIV =         490.9886     RIV_SYS1                         
                 RIV =           0.0000                   RIV =           0.0000     RIV_SYS2                         
                 RCH =      144012.7637                   RCH =        1984.6415     RCH_MSW                          

            TOTAL IN =      340736.8583              TOTAL IN =        3407.5629

          OUT:                                     OUT:
          ----                                     ----
              STO-SS =       55314.9961                STO-SS =         357.1394     STORAGE                          
                 WEL =       98482.2899                   WEL =         989.5245     RIV_CORR                         
                 DRN =       21718.7344                   DRN =         267.6961     DRN_SYS1                         
                 RIV =       88544.7552                   RIV =        1076.1089     RIV_SYS1                         
                 RIV =       58755.4332                   RIV =         717.0670     RIV_SYS2                         
                 RCH =       17921.3413                   RCH =           0.0000     RCH_MSW                          

           TOTAL OUT =      340737.5501             TOTAL OUT =        3407.5359

            IN - OUT =          -0.6918              IN - OUT =       2.7002E-02

 PERCENT DISCREPANCY =          -0.00     PERCENT DISCREPANCY =           0.00




         TIME SUMMARY AT END OF TIME STEP    1 IN STRESS PERIOD   81
                    SECONDS     MINUTES      HOURS       DAYS        YEARS
                    -----------------------------------------------------------
   TIME STEP LENGTH  86400.      1440.0      24.000      1.0000     2.73785E-03
 STRESS PERIOD TIME  86400.      1440.0      24.000      1.0000     2.73785E-03
         TOTAL TIME 6.99840E+06 1.16640E+05  1944.0      81.000     0.22177    


end timestep


start timestep kper="82" kstp="1" mode="normal"

 #Stressperiod Save Options

 BEGIN READING OUTPUT CONTROL FOR STRESS PERIOD 82
      ALL TIME STEPS WILL BE SAVED
      ALL TIME STEPS WILL BE SAVED

 END READING OUTPUT CONTROL FOR STRESS PERIOD 82


 PROCESSING STORAGE PERIOD DATA
 END PROCESSING STORAGE PERIOD DATA


 STRESS PERIOD 82 IS TRANSIENT


 REUSING WELS FROM LAST STRESS PERIOD

 REUSING DRNS FROM LAST STRESS PERIOD

 REUSING RIVS FROM LAST STRESS PERIOD

 REUSING RIVS FROM LAST STRESS PERIOD

 REUSING RCHS FROM LAST STRESS PERIOD
 UBDSV06 SAVING              DRN IN MODEL GWF_1            PACKAGE GWF_1           CONNECTED TO MODEL GWF_1            PACKAGE DRN_SYS1         ON UNIT   1019 AT TIME STEP      1, STRESS PERIOD     82
 UBDSV06 SAVING              RIV IN MODEL GWF_1            PACKAGE GWF_1           CONNECTED TO MODEL GWF_1            PACKAGE RIV_SYS1         ON UNIT   1019 AT TIME STEP      1, STRESS PERIOD     82
 UBDSV06 SAVING              RIV IN MODEL GWF_1            PACKAGE GWF_1           CONNECTED TO MODEL GWF_1            PACKAGE RIV_SYS2         ON UNIT   1019 AT TIME STEP      1, STRESS PERIOD     82

 HEAD WILL BE SAVED ON UNIT 1018 AT END OF TIME STEP    1, STRESS PERIOD   82


  VOLUME BUDGET FOR ENTIRE MODEL AT END OF TIME STEP    1, STRESS PERIOD  82
  ---------------------------------------------------------------------------------------------------

     CUMULATIVE VOLUME      L**3       RATES FOR THIS TIME STEP      L**3/T          PACKAGE NAME    
     ------------------                 ------------------------                     ----------------

           IN:                                      IN:
           ---                                      ---
              STO-SS =       80019.7255                STO-SS =         559.7596     STORAGE                          
                 WEL =       62807.6252                   WEL =         490.9886     RIV_CORR                         
                 DRN =           0.0000                   DRN =           0.0000     DRN_SYS1                         
                 RIV =       55580.3963                   RIV =         632.9042     RIV_SYS1                         
                 RIV =           0.0000                   RIV =           0.0000     RIV_SYS2                         
                 RCH =      145454.5740                   RCH =        1441.8104     RCH_MSW                          

            TOTAL IN =      343862.3210              TOTAL IN =        3125.4628

          OUT:                                     OUT:
          ----                                     ----
              STO-SS =       55444.1491                STO-SS =         129.1530     STORAGE                          
                 WEL =       99558.3988                   WEL =        1076.1089     RIV_CORR                         
                 DRN =       21985.5410                   DRN =         266.8066     DRN_SYS1                         
                 RIV =       89483.0561                   RIV =         938.3010     RIV_SYS1                         
                 RIV =       59470.3960                   RIV =         714.9628     RIV_SYS2                         
                 RCH =       17921.4957                   RCH =           0.1544     RCH_MSW                          

           TOTAL OUT =      343863.0367             TOTAL OUT =        3125.4867

            IN - OUT =          -0.7157              IN - OUT =      -2.3895E-02

 PERCENT DISCREPANCY =          -0.00     PERCENT DISCREPANCY =          -0.00




         TIME SUMMARY AT END OF TIME STEP    1 IN STRESS PERIOD   82
                    SECONDS     MINUTES      HOURS       DAYS        YEARS
                    -----------------------------------------------------------
   TIME STEP LENGTH  86400.      1440.0      24.000      1.0000     2.73785E-03
 STRESS PERIOD TIME  86400.      1440.0      24.000      1.0000     2.73785E-03
         TOTAL TIME 7.08480E+06 1.18080E+05  1968.0      82.000     0.22450    


end timestep


start timestep kper="83" kstp="1" mode="normal"

 #Stressperiod Save Options

 BEGIN READING OUTPUT CONTROL FOR STRESS PERIOD 83
      ALL TIME STEPS WILL BE SAVED
      ALL TIME STEPS WILL BE SAVED

 END READING OUTPUT CONTROL FOR STRESS PERIOD 83


 PROCESSING STORAGE PERIOD DATA
 END PROCESSING STORAGE PERIOD DATA


 STRESS PERIOD 83 IS TRANSIENT


 REUSING WELS FROM LAST STRESS PERIOD

 REUSING DRNS FROM LAST STRESS PERIOD

 REUSING RIVS FROM LAST STRESS PERIOD

 REUSING RIVS FROM LAST STRESS PERIOD

 REUSING RCHS FROM LAST STRESS PERIOD
 UBDSV06 SAVING              DRN IN MODEL GWF_1            PACKAGE GWF_1           CONNECTED TO MODEL GWF_1            PACKAGE DRN_SYS1         ON UNIT   1019 AT TIME STEP      1, STRESS PERIOD     83
 UBDSV06 SAVING              RIV IN MODEL GWF_1            PACKAGE GWF_1           CONNECTED TO MODEL GWF_1            PACKAGE RIV_SYS1         ON UNIT   1019 AT TIME STEP      1, STRESS PERIOD     83
 UBDSV06 SAVING              RIV IN MODEL GWF_1            PACKAGE GWF_1           CONNECTED TO MODEL GWF_1            PACKAGE RIV_SYS2         ON UNIT   1019 AT TIME STEP      1, STRESS PERIOD     83

 HEAD WILL BE SAVED ON UNIT 1018 AT END OF TIME STEP    1, STRESS PERIOD   83


  VOLUME BUDGET FOR ENTIRE MODEL AT END OF TIME STEP    1, STRESS PERIOD  83
  ---------------------------------------------------------------------------------------------------

     CUMULATIVE VOLUME      L**3       RATES FOR THIS TIME STEP      L**3/T          PACKAGE NAME    
     ------------------                 ------------------------                     ----------------

           IN:                                      IN:
           ---                                      ---
              STO-SS =       80513.3436                STO-SS =         493.6181     STORAGE                          
                 WEL =       63440.5294                   WEL =         632.9042     RIV_CORR                         
                 DRN =           0.0000                   DRN =           0.0000     DRN_SYS1                         
                 RIV =       56162.4927                   RIV =         582.0964     RIV_SYS1                         
                 RIV =           0.0000                   RIV =           0.0000     RIV_SYS2                         
                 RCH =      146655.6913                   RCH =        1201.1172     RCH_MSW                          

            TOTAL IN =      346772.0569              TOTAL IN =        2909.7359

          OUT:                                     OUT:
          ----                                     ----
              STO-SS =       55505.5470                STO-SS =          61.3979     STORAGE                          
                 WEL =      100496.6998                   WEL =         938.3010     RIV_CORR                         
                 DRN =       22251.2741                   DRN =         265.7331     DRN_SYS1                         
                 RIV =       90415.0500                   RIV =         931.9939     RIV_SYS1                         
                 RIV =       60182.7045                   RIV =         712.3085     RIV_SYS2                         
                 RCH =       17921.4957                   RCH =           0.0000     RCH_MSW                          

           TOTAL OUT =      346772.7711             TOTAL OUT =        2909.7344

            IN - OUT =          -0.7142              IN - OUT =       1.5227E-03

 PERCENT DISCREPANCY =          -0.00     PERCENT DISCREPANCY =           0.00




         TIME SUMMARY AT END OF TIME STEP    1 IN STRESS PERIOD   83
                    SECONDS     MINUTES      HOURS       DAYS        YEARS
                    -----------------------------------------------------------
   TIME STEP LENGTH  86400.      1440.0      24.000      1.0000     2.73785E-03
 STRESS PERIOD TIME  86400.      1440.0      24.000      1.0000     2.73785E-03
         TOTAL TIME 7.17120E+06 1.19520E+05  1992.0      83.000     0.22724    


end timestep


start timestep kper="84" kstp="1" mode="normal"

 #Stressperiod Save Options

 BEGIN READING OUTPUT CONTROL FOR STRESS PERIOD 84
      ALL TIME STEPS WILL BE SAVED
      ALL TIME STEPS WILL BE SAVED

 END READING OUTPUT CONTROL FOR STRESS PERIOD 84


 PROCESSING STORAGE PERIOD DATA
 END PROCESSING STORAGE PERIOD DATA


 STRESS PERIOD 84 IS TRANSIENT


 REUSING WELS FROM LAST STRESS PERIOD

 REUSING DRNS FROM LAST STRESS PERIOD

 REUSING RIVS FROM LAST STRESS PERIOD

 REUSING RIVS FROM LAST STRESS PERIOD

 REUSING RCHS FROM LAST STRESS PERIOD
 UBDSV06 SAVING              DRN IN MODEL GWF_1            PACKAGE GWF_1           CONNECTED TO MODEL GWF_1            PACKAGE DRN_SYS1         ON UNIT   1019 AT TIME STEP      1, STRESS PERIOD     84
 UBDSV06 SAVING              RIV IN MODEL GWF_1            PACKAGE GWF_1           CONNECTED TO MODEL GWF_1            PACKAGE RIV_SYS1         ON UNIT   1019 AT TIME STEP      1, STRESS PERIOD     84
 UBDSV06 SAVING              RIV IN MODEL GWF_1            PACKAGE GWF_1           CONNECTED TO MODEL GWF_1            PACKAGE RIV_SYS2         ON UNIT   1019 AT TIME STEP      1, STRESS PERIOD     84

 HEAD WILL BE SAVED ON UNIT 1018 AT END OF TIME STEP    1, STRESS PERIOD   84


  VOLUME BUDGET FOR ENTIRE MODEL AT END OF TIME STEP    1, STRESS PERIOD  84
  ---------------------------------------------------------------------------------------------------

     CUMULATIVE VOLUME      L**3       RATES FOR THIS TIME STEP      L**3/T          PACKAGE NAME    
     ------------------                 ------------------------                     ----------------

           IN:                                      IN:
           ---                                      ---
              STO-SS =       80513.3436                STO-SS =           0.0000     STORAGE                          
                 WEL =       64022.6257                   WEL =         582.0964     RIV_CORR                         
                 DRN =           0.0000                   DRN =           0.0000     DRN_SYS1                         
                 RIV =       56392.0266                   RIV =         229.5339     RIV_SYS1                         
                 RIV =           0.0000                   RIV =           0.0000     RIV_SYS2                         
                 RCH =      156302.8755                   RCH =        9647.1843     RCH_MSW                          

            TOTAL IN =      357230.8715              TOTAL IN =       10458.8146

          OUT:                                     OUT:
          ----                                     ----
              STO-SS =       61598.3765                STO-SS =        6092.8295     STORAGE                          
                 WEL =      101428.6937                   WEL =         931.9939     RIV_CORR                         
                 DRN =       22527.2478                   DRN =         275.9737     DRN_SYS1                         
                 RIV =       92836.8211                   RIV =        2421.7711     RIV_SYS1                         
                 RIV =       60918.9621                   RIV =         736.2576     RIV_SYS2                         
                 RCH =       17921.4957                   RCH =           0.0000     RCH_MSW                          

           TOTAL OUT =      357231.5968             TOTAL OUT =       10458.8257

            IN - OUT =          -0.7253              IN - OUT =      -1.1144E-02

 PERCENT DISCREPANCY =          -0.00     PERCENT DISCREPANCY =          -0.00




         TIME SUMMARY AT END OF TIME STEP    1 IN STRESS PERIOD   84
                    SECONDS     MINUTES      HOURS       DAYS        YEARS
                    -----------------------------------------------------------
   TIME STEP LENGTH  86400.      1440.0      24.000      1.0000     2.73785E-03
 STRESS PERIOD TIME  86400.      1440.0      24.000      1.0000     2.73785E-03
         TOTAL TIME 7.25760E+06 1.20960E+05  2016.0      84.000     0.22998    


end timestep


start timestep kper="85" kstp="1" mode="normal"

 #Stressperiod Save Options

 BEGIN READING OUTPUT CONTROL FOR STRESS PERIOD 85
      ALL TIME STEPS WILL BE SAVED
      ALL TIME STEPS WILL BE SAVED

 END READING OUTPUT CONTROL FOR STRESS PERIOD 85


 PROCESSING STORAGE PERIOD DATA
 END PROCESSING STORAGE PERIOD DATA


 STRESS PERIOD 85 IS TRANSIENT


 REUSING WELS FROM LAST STRESS PERIOD

 REUSING DRNS FROM LAST STRESS PERIOD

 REUSING RIVS FROM LAST STRESS PERIOD

 REUSING RIVS FROM LAST STRESS PERIOD

 REUSING RCHS FROM LAST STRESS PERIOD
 UBDSV06 SAVING              DRN IN MODEL GWF_1            PACKAGE GWF_1           CONNECTED TO MODEL GWF_1            PACKAGE DRN_SYS1         ON UNIT   1019 AT TIME STEP      1, STRESS PERIOD     85
 UBDSV06 SAVING              RIV IN MODEL GWF_1            PACKAGE GWF_1           CONNECTED TO MODEL GWF_1            PACKAGE RIV_SYS1         ON UNIT   1019 AT TIME STEP      1, STRESS PERIOD     85
 UBDSV06 SAVING              RIV IN MODEL GWF_1            PACKAGE GWF_1           CONNECTED TO MODEL GWF_1            PACKAGE RIV_SYS2         ON UNIT   1019 AT TIME STEP      1, STRESS PERIOD     85

 HEAD WILL BE SAVED ON UNIT 1018 AT END OF TIME STEP    1, STRESS PERIOD   85


  VOLUME BUDGET FOR ENTIRE MODEL AT END OF TIME STEP    1, STRESS PERIOD  85
  ---------------------------------------------------------------------------------------------------

     CUMULATIVE VOLUME      L**3       RATES FOR THIS TIME STEP      L**3/T          PACKAGE NAME    
     ------------------                 ------------------------                     ----------------

           IN:                                      IN:
           ---                                      ---
              STO-SS =       82571.6851                STO-SS =        2058.3415     STORAGE                          
                 WEL =       64252.1597                   WEL =         229.5339     RIV_CORR                         
                 DRN =           0.0000                   DRN =           0.0000     DRN_SYS1                         
                 RIV =       57132.4487                   RIV =         740.4220     RIV_SYS1                         
                 RIV =           0.0000                   RIV =           0.0000     RIV_SYS2                         
                 RCH =      159923.8031                   RCH =        3620.9276     RCH_MSW                          

            TOTAL IN =      363880.0965              TOTAL IN =        6649.2251

          OUT:                                     OUT:
          ----                                     ----
              STO-SS =       62867.1343                STO-SS =        1268.7578     STORAGE                          
                 WEL =      103850.4647                   WEL =        2421.7711     RIV_CORR                         
                 DRN =       22806.6635                   DRN =         279.4157     DRN_SYS1                         
                 RIV =       93984.6891                   RIV =        1147.8681     RIV_SYS1                         
                 RIV =       61664.9800                   RIV =         746.0179     RIV_SYS2                         
                 RCH =       18706.8837                   RCH =         785.3880     RCH_MSW                          

           TOTAL OUT =      363880.8155             TOTAL OUT =        6649.2187

            IN - OUT =          -0.7189              IN - OUT =       6.4087E-03

 PERCENT DISCREPANCY =          -0.00     PERCENT DISCREPANCY =           0.00




         TIME SUMMARY AT END OF TIME STEP    1 IN STRESS PERIOD   85
                    SECONDS     MINUTES      HOURS       DAYS        YEARS
                    -----------------------------------------------------------
   TIME STEP LENGTH  86400.      1440.0      24.000      1.0000     2.73785E-03
 STRESS PERIOD TIME  86400.      1440.0      24.000      1.0000     2.73785E-03
         TOTAL TIME 7.34400E+06 1.22400E+05  2040.0      85.000     0.23272    


end timestep


start timestep kper="86" kstp="1" mode="normal"

 #Stressperiod Save Options

 BEGIN READING OUTPUT CONTROL FOR STRESS PERIOD 86
      ALL TIME STEPS WILL BE SAVED
      ALL TIME STEPS WILL BE SAVED

 END READING OUTPUT CONTROL FOR STRESS PERIOD 86


 PROCESSING STORAGE PERIOD DATA
 END PROCESSING STORAGE PERIOD DATA


 STRESS PERIOD 86 IS TRANSIENT


 REUSING WELS FROM LAST STRESS PERIOD

 REUSING DRNS FROM LAST STRESS PERIOD

 REUSING RIVS FROM LAST STRESS PERIOD

 REUSING RIVS FROM LAST STRESS PERIOD

 REUSING RCHS FROM LAST STRESS PERIOD
 UBDSV06 SAVING              DRN IN MODEL GWF_1            PACKAGE GWF_1           CONNECTED TO MODEL GWF_1            PACKAGE DRN_SYS1         ON UNIT   1019 AT TIME STEP      1, STRESS PERIOD     86
 UBDSV06 SAVING              RIV IN MODEL GWF_1            PACKAGE GWF_1           CONNECTED TO MODEL GWF_1            PACKAGE RIV_SYS1         ON UNIT   1019 AT TIME STEP      1, STRESS PERIOD     86
 UBDSV06 SAVING              RIV IN MODEL GWF_1            PACKAGE GWF_1           CONNECTED TO MODEL GWF_1            PACKAGE RIV_SYS2         ON UNIT   1019 AT TIME STEP      1, STRESS PERIOD     86

 HEAD WILL BE SAVED ON UNIT 1018 AT END OF TIME STEP    1, STRESS PERIOD   86


  VOLUME BUDGET FOR ENTIRE MODEL AT END OF TIME STEP    1, STRESS PERIOD  86
  ---------------------------------------------------------------------------------------------------

     CUMULATIVE VOLUME      L**3       RATES FOR THIS TIME STEP      L**3/T          PACKAGE NAME    
     ------------------                 ------------------------                     ----------------

           IN:                                      IN:
           ---                                      ---
              STO-SS =       83274.4931                STO-SS =         702.8080     STORAGE                          
                 WEL =       64992.5817                   WEL =         740.4220     RIV_CORR                         
                 DRN =           0.0000                   DRN =           0.0000     DRN_SYS1                         
                 RIV =       57590.0926                   RIV =         457.6440     RIV_SYS1                         
                 RIV =           0.0000                   RIV =           0.0000     RIV_SYS2                         
                 RCH =      162112.4923                   RCH =        2188.6892     RCH_MSW                          

            TOTAL IN =      367969.6597              TOTAL IN =        4089.5632

          OUT:                                     OUT:
          ----                                     ----
              STO-SS =       63367.1874                STO-SS =         500.0531     STORAGE                          
                 WEL =      104998.3328                   WEL =        1147.8681     RIV_CORR                         
                 DRN =       23085.6716                   DRN =         279.0081     DRN_SYS1                         
                 RIV =       95200.0903                   RIV =        1215.4011     RIV_SYS1                         
                 RIV =       62411.1470                   RIV =         746.1670     RIV_SYS2                         
                 RCH =       18907.9750                   RCH =         201.0913     RCH_MSW                          

           TOTAL OUT =      367970.4041             TOTAL OUT =        4089.5887

            IN - OUT =          -0.7444              IN - OUT =      -2.5493E-02

 PERCENT DISCREPANCY =          -0.00     PERCENT DISCREPANCY =          -0.00




         TIME SUMMARY AT END OF TIME STEP    1 IN STRESS PERIOD   86
                    SECONDS     MINUTES      HOURS       DAYS        YEARS
                    -----------------------------------------------------------
   TIME STEP LENGTH  86400.      1440.0      24.000      1.0000     2.73785E-03
 STRESS PERIOD TIME  86400.      1440.0      24.000      1.0000     2.73785E-03
         TOTAL TIME 7.43040E+06 1.23840E+05  2064.0      86.000     0.23546    


end timestep


start timestep kper="87" kstp="1" mode="normal"

 #Stressperiod Save Options

 BEGIN READING OUTPUT CONTROL FOR STRESS PERIOD 87
      ALL TIME STEPS WILL BE SAVED
      ALL TIME STEPS WILL BE SAVED

 END READING OUTPUT CONTROL FOR STRESS PERIOD 87


 PROCESSING STORAGE PERIOD DATA
 END PROCESSING STORAGE PERIOD DATA


 STRESS PERIOD 87 IS TRANSIENT


 REUSING WELS FROM LAST STRESS PERIOD

 REUSING DRNS FROM LAST STRESS PERIOD

 REUSING RIVS FROM LAST STRESS PERIOD

 REUSING RIVS FROM LAST STRESS PERIOD

 REUSING RCHS FROM LAST STRESS PERIOD
 UBDSV06 SAVING              DRN IN MODEL GWF_1            PACKAGE GWF_1           CONNECTED TO MODEL GWF_1            PACKAGE DRN_SYS1         ON UNIT   1019 AT TIME STEP      1, STRESS PERIOD     87
 UBDSV06 SAVING              RIV IN MODEL GWF_1            PACKAGE GWF_1           CONNECTED TO MODEL GWF_1            PACKAGE RIV_SYS1         ON UNIT   1019 AT TIME STEP      1, STRESS PERIOD     87
 UBDSV06 SAVING              RIV IN MODEL GWF_1            PACKAGE GWF_1           CONNECTED TO MODEL GWF_1            PACKAGE RIV_SYS2         ON UNIT   1019 AT TIME STEP      1, STRESS PERIOD     87

 HEAD WILL BE SAVED ON UNIT 1018 AT END OF TIME STEP    1, STRESS PERIOD   87


  VOLUME BUDGET FOR ENTIRE MODEL AT END OF TIME STEP    1, STRESS PERIOD  87
  ---------------------------------------------------------------------------------------------------

     CUMULATIVE VOLUME      L**3       RATES FOR THIS TIME STEP      L**3/T          PACKAGE NAME    
     ------------------                 ------------------------                     ----------------

           IN:                                      IN:
           ---                                      ---
              STO-SS =       84102.4469                STO-SS =         827.9538     STORAGE                          
                 WEL =       65450.2257                   WEL =         457.6440     RIV_CORR                         
                 DRN =           0.0000                   DRN =           0.0000     DRN_SYS1                         
                 RIV =       58149.8977                   RIV =         559.8051     RIV_SYS1                         
                 RIV =           0.0000                   RIV =           0.0000     RIV_SYS2                         
                 RCH =      163693.5569                   RCH =        1581.0645     RCH_MSW                          

            TOTAL IN =      371396.1271              TOTAL IN =        3426.4674

          OUT:                                     OUT:
          ----                                     ----
              STO-SS =       63478.7542                STO-SS =         111.5668     STORAGE                          
                 WEL =      106213.7339                   WEL =        1215.4011     RIV_CORR                         
                 DRN =       23363.0865                   DRN =         277.4148     DRN_SYS1                         
                 RIV =       96243.3137                   RIV =        1043.2234     RIV_SYS1                         
                 RIV =       63153.8639                   RIV =         742.7169     RIV_SYS2                         
                 RCH =       18944.0786                   RCH =          36.1036     RCH_MSW                          

           TOTAL OUT =      371396.8308             TOTAL OUT =        3426.4267

            IN - OUT =          -0.7037              IN - OUT =       4.0703E-02

 PERCENT DISCREPANCY =          -0.00     PERCENT DISCREPANCY =           0.00




         TIME SUMMARY AT END OF TIME STEP    1 IN STRESS PERIOD   87
                    SECONDS     MINUTES      HOURS       DAYS        YEARS
                    -----------------------------------------------------------
   TIME STEP LENGTH  86400.      1440.0      24.000      1.0000     2.73785E-03
 STRESS PERIOD TIME  86400.      1440.0      24.000      1.0000     2.73785E-03
         TOTAL TIME 7.51680E+06 1.25280E+05  2088.0      87.000     0.23819    


end timestep


start timestep kper="88" kstp="1" mode="normal"

 #Stressperiod Save Options

 BEGIN READING OUTPUT CONTROL FOR STRESS PERIOD 88
      ALL TIME STEPS WILL BE SAVED
      ALL TIME STEPS WILL BE SAVED

 END READING OUTPUT CONTROL FOR STRESS PERIOD 88


 PROCESSING STORAGE PERIOD DATA
 END PROCESSING STORAGE PERIOD DATA


 STRESS PERIOD 88 IS TRANSIENT


 REUSING WELS FROM LAST STRESS PERIOD

 REUSING DRNS FROM LAST STRESS PERIOD

 REUSING RIVS FROM LAST STRESS PERIOD

 REUSING RIVS FROM LAST STRESS PERIOD

 REUSING RCHS FROM LAST STRESS PERIOD
 UBDSV06 SAVING              DRN IN MODEL GWF_1            PACKAGE GWF_1           CONNECTED TO MODEL GWF_1            PACKAGE DRN_SYS1         ON UNIT   1019 AT TIME STEP      1, STRESS PERIOD     88
 UBDSV06 SAVING              RIV IN MODEL GWF_1            PACKAGE GWF_1           CONNECTED TO MODEL GWF_1            PACKAGE RIV_SYS1         ON UNIT   1019 AT TIME STEP      1, STRESS PERIOD     88
 UBDSV06 SAVING              RIV IN MODEL GWF_1            PACKAGE GWF_1           CONNECTED TO MODEL GWF_1            PACKAGE RIV_SYS2         ON UNIT   1019 AT TIME STEP      1, STRESS PERIOD     88

 HEAD WILL BE SAVED ON UNIT 1018 AT END OF TIME STEP    1, STRESS PERIOD   88


  VOLUME BUDGET FOR ENTIRE MODEL AT END OF TIME STEP    1, STRESS PERIOD  88
  ---------------------------------------------------------------------------------------------------

     CUMULATIVE VOLUME      L**3       RATES FOR THIS TIME STEP      L**3/T          PACKAGE NAME    
     ------------------                 ------------------------                     ----------------

           IN:                                      IN:
           ---                                      ---
              STO-SS =       85073.7289                STO-SS =         971.2819     STORAGE                          
                 WEL =       66010.0307                   WEL =         559.8051     RIV_CORR                         
                 DRN =           0.0000                   DRN =           0.0000     DRN_SYS1                         
                 RIV =       58719.8979                   RIV =         570.0002     RIV_SYS1                         
                 RIV =           0.0000                   RIV =           0.0000     RIV_SYS2                         
                 RCH =      164838.5333                   RCH =        1144.9764     RCH_MSW                          

            TOTAL IN =      374642.1908              TOTAL IN =        3246.0636

          OUT:                                     OUT:
          ----                                     ----
              STO-SS =       63498.5614                STO-SS =          19.8071     STORAGE                          
                 WEL =      107256.9573                   WEL =        1043.2234     RIV_CORR                         
                 DRN =       23638.3712                   DRN =         275.2847     DRN_SYS1                         
                 RIV =       97242.4284                   RIV =         999.1147     RIV_SYS1                         
                 RIV =       63891.4515                   RIV =         737.5876     RIV_SYS2                         
                 RCH =       19115.1569                   RCH =         171.0783     RCH_MSW                          

           TOTAL OUT =      374642.9267             TOTAL OUT =        3246.0959

            IN - OUT =          -0.7359              IN - OUT =      -3.2233E-02

 PERCENT DISCREPANCY =          -0.00     PERCENT DISCREPANCY =          -0.00




         TIME SUMMARY AT END OF TIME STEP    1 IN STRESS PERIOD   88
                    SECONDS     MINUTES      HOURS       DAYS        YEARS
                    -----------------------------------------------------------
   TIME STEP LENGTH  86400.      1440.0      24.000      1.0000     2.73785E-03
 STRESS PERIOD TIME  86400.      1440.0      24.000      1.0000     2.73785E-03
         TOTAL TIME 7.60320E+06 1.26720E+05  2112.0      88.000     0.24093    


end timestep


start timestep kper="89" kstp="1" mode="normal"

 #Stressperiod Save Options

 BEGIN READING OUTPUT CONTROL FOR STRESS PERIOD 89
      ALL TIME STEPS WILL BE SAVED
      ALL TIME STEPS WILL BE SAVED

 END READING OUTPUT CONTROL FOR STRESS PERIOD 89


 PROCESSING STORAGE PERIOD DATA
 END PROCESSING STORAGE PERIOD DATA


 STRESS PERIOD 89 IS TRANSIENT


 REUSING WELS FROM LAST STRESS PERIOD

 REUSING DRNS FROM LAST STRESS PERIOD

 REUSING RIVS FROM LAST STRESS PERIOD

 REUSING RIVS FROM LAST STRESS PERIOD

 REUSING RCHS FROM LAST STRESS PERIOD
 UBDSV06 SAVING              DRN IN MODEL GWF_1            PACKAGE GWF_1           CONNECTED TO MODEL GWF_1            PACKAGE DRN_SYS1         ON UNIT   1019 AT TIME STEP      1, STRESS PERIOD     89
 UBDSV06 SAVING              RIV IN MODEL GWF_1            PACKAGE GWF_1           CONNECTED TO MODEL GWF_1            PACKAGE RIV_SYS1         ON UNIT   1019 AT TIME STEP      1, STRESS PERIOD     89
 UBDSV06 SAVING              RIV IN MODEL GWF_1            PACKAGE GWF_1           CONNECTED TO MODEL GWF_1            PACKAGE RIV_SYS2         ON UNIT   1019 AT TIME STEP      1, STRESS PERIOD     89

 HEAD WILL BE SAVED ON UNIT 1018 AT END OF TIME STEP    1, STRESS PERIOD   89


  VOLUME BUDGET FOR ENTIRE MODEL AT END OF TIME STEP    1, STRESS PERIOD  89
  ---------------------------------------------------------------------------------------------------

     CUMULATIVE VOLUME      L**3       RATES FOR THIS TIME STEP      L**3/T          PACKAGE NAME    
     ------------------                 ------------------------                     ----------------

           IN:                                      IN:
           ---                                      ---
              STO-SS =       86336.3577                STO-SS =        1262.6288     STORAGE                          
                 WEL =       66580.0309                   WEL =         570.0002     RIV_CORR                         
                 DRN =           0.0000                   DRN =           0.0000     DRN_SYS1                         
                 RIV =       59420.7234                   RIV =         700.8256     RIV_SYS1                         
                 RIV =           0.0000                   RIV =           0.0000     RIV_SYS2                         
                 RCH =      165656.6069                   RCH =         818.0736     RCH_MSW                          

            TOTAL IN =      377993.7190              TOTAL IN =        3351.5282

          OUT:                                     OUT:
          ----                                     ----
              STO-SS =       63498.5614                STO-SS =           0.0000     STORAGE                          
                 WEL =      108256.0721                   WEL =         999.1147     RIV_CORR                         
                 DRN =       23911.1675                   DRN =         272.7963     DRN_SYS1                         
                 RIV =       98189.1358                   RIV =         946.7074     RIV_SYS1                         
                 RIV =       64622.8747                   RIV =         731.4232     RIV_SYS2                         
                 RCH =       19516.7277                   RCH =         401.5708     RCH_MSW                          

           TOTAL OUT =      377994.5391             TOTAL OUT =        3351.6124

            IN - OUT =          -0.8201              IN - OUT =      -8.4181E-02

 PERCENT DISCREPANCY =          -0.00     PERCENT DISCREPANCY =          -0.00




         TIME SUMMARY AT END OF TIME STEP    1 IN STRESS PERIOD   89
                    SECONDS     MINUTES      HOURS       DAYS        YEARS
                    -----------------------------------------------------------
   TIME STEP LENGTH  86400.      1440.0      24.000      1.0000     2.73785E-03
 STRESS PERIOD TIME  86400.      1440.0      24.000      1.0000     2.73785E-03
         TOTAL TIME 7.68960E+06 1.28160E+05  2136.0      89.000     0.24367    


end timestep


start timestep kper="90" kstp="1" mode="normal"

 #Stressperiod Save Options

 BEGIN READING OUTPUT CONTROL FOR STRESS PERIOD 90
      ALL TIME STEPS WILL BE SAVED
      ALL TIME STEPS WILL BE SAVED

 END READING OUTPUT CONTROL FOR STRESS PERIOD 90


 PROCESSING STORAGE PERIOD DATA
 END PROCESSING STORAGE PERIOD DATA


 STRESS PERIOD 90 IS TRANSIENT


 REUSING WELS FROM LAST STRESS PERIOD

 REUSING DRNS FROM LAST STRESS PERIOD

 REUSING RIVS FROM LAST STRESS PERIOD

 REUSING RIVS FROM LAST STRESS PERIOD

 REUSING RCHS FROM LAST STRESS PERIOD
 UBDSV06 SAVING              DRN IN MODEL GWF_1            PACKAGE GWF_1           CONNECTED TO MODEL GWF_1            PACKAGE DRN_SYS1         ON UNIT   1019 AT TIME STEP      1, STRESS PERIOD     90
 UBDSV06 SAVING              RIV IN MODEL GWF_1            PACKAGE GWF_1           CONNECTED TO MODEL GWF_1            PACKAGE RIV_SYS1         ON UNIT   1019 AT TIME STEP      1, STRESS PERIOD     90
 UBDSV06 SAVING              RIV IN MODEL GWF_1            PACKAGE GWF_1           CONNECTED TO MODEL GWF_1            PACKAGE RIV_SYS2         ON UNIT   1019 AT TIME STEP      1, STRESS PERIOD     90

 HEAD WILL BE SAVED ON UNIT 1018 AT END OF TIME STEP    1, STRESS PERIOD   90


  VOLUME BUDGET FOR ENTIRE MODEL AT END OF TIME STEP    1, STRESS PERIOD  90
  ---------------------------------------------------------------------------------------------------

     CUMULATIVE VOLUME      L**3       RATES FOR THIS TIME STEP      L**3/T          PACKAGE NAME    
     ------------------                 ------------------------                     ----------------

           IN:                                      IN:
           ---                                      ---
              STO-SS =       87205.2675                STO-SS =         868.9099     STORAGE                          
                 WEL =       67280.8565                   WEL =         700.8256     RIV_CORR                         
                 DRN =           0.0000                   DRN =           0.0000     DRN_SYS1                         
                 RIV =       59921.3419                   RIV =         500.6184     RIV_SYS1                         
                 RIV =           0.0000                   RIV =           0.0000     RIV_SYS2                         
                 RCH =      166704.3398                   RCH =        1047.7329     RCH_MSW                          

            TOTAL IN =      381111.8057              TOTAL IN =        3118.0868

          OUT:                                     OUT:
          ----                                     ----
              STO-SS =       63649.3440                STO-SS =         150.7826     STORAGE                          
                 WEL =      109202.7794                   WEL =         946.7074     RIV_CORR                         
                 DRN =       24181.9022                   DRN =         270.7348     DRN_SYS1                         
                 RIV =       99212.7900                   RIV =        1023.6542     RIV_SYS1                         
                 RIV =       65349.0174                   RIV =         726.1427     RIV_SYS2                         
                 RCH =       19516.7277                   RCH =           0.0000     RCH_MSW                          

           TOTAL OUT =      381112.5608             TOTAL OUT =        3118.0217

            IN - OUT =          -0.7550              IN - OUT =       6.5080E-02

 PERCENT DISCREPANCY =          -0.00     PERCENT DISCREPANCY =           0.00




         TIME SUMMARY AT END OF TIME STEP    1 IN STRESS PERIOD   90
                    SECONDS     MINUTES      HOURS       DAYS        YEARS
                    -----------------------------------------------------------
   TIME STEP LENGTH  86400.      1440.0      24.000      1.0000     2.73785E-03
 STRESS PERIOD TIME  86400.      1440.0      24.000      1.0000     2.73785E-03
         TOTAL TIME 7.77600E+06 1.29600E+05  2160.0      90.000     0.24641    


end timestep


start timestep kper="91" kstp="1" mode="normal"

 #Stressperiod Save Options

 BEGIN READING OUTPUT CONTROL FOR STRESS PERIOD 91
      ALL TIME STEPS WILL BE SAVED
      ALL TIME STEPS WILL BE SAVED

 END READING OUTPUT CONTROL FOR STRESS PERIOD 91


 PROCESSING STORAGE PERIOD DATA
 END PROCESSING STORAGE PERIOD DATA


 STRESS PERIOD 91 IS TRANSIENT


 REUSING WELS FROM LAST STRESS PERIOD

 REUSING DRNS FROM LAST STRESS PERIOD

 REUSING RIVS FROM LAST STRESS PERIOD

 REUSING RIVS FROM LAST STRESS PERIOD

 REUSING RCHS FROM LAST STRESS PERIOD
 UBDSV06 SAVING              DRN IN MODEL GWF_1            PACKAGE GWF_1           CONNECTED TO MODEL GWF_1            PACKAGE DRN_SYS1         ON UNIT   1019 AT TIME STEP      1, STRESS PERIOD     91
 UBDSV06 SAVING              RIV IN MODEL GWF_1            PACKAGE GWF_1           CONNECTED TO MODEL GWF_1            PACKAGE RIV_SYS1         ON UNIT   1019 AT TIME STEP      1, STRESS PERIOD     91
 UBDSV06 SAVING              RIV IN MODEL GWF_1            PACKAGE GWF_1           CONNECTED TO MODEL GWF_1            PACKAGE RIV_SYS2         ON UNIT   1019 AT TIME STEP      1, STRESS PERIOD     91

 HEAD WILL BE SAVED ON UNIT 1018 AT END OF TIME STEP    1, STRESS PERIOD   91


  VOLUME BUDGET FOR ENTIRE MODEL AT END OF TIME STEP    1, STRESS PERIOD  91
  ---------------------------------------------------------------------------------------------------

     CUMULATIVE VOLUME      L**3       RATES FOR THIS TIME STEP      L**3/T          PACKAGE NAME    
     ------------------                 ------------------------                     ----------------

           IN:                                      IN:
           ---                                      ---
              STO-SS =       87270.2861                STO-SS =          65.0186     STORAGE                          
                 WEL =       67781.4749                   WEL =         500.6184     RIV_CORR                         
                 DRN =           0.0000                   DRN =           0.0000     DRN_SYS1                         
                 RIV =       60234.3712                   RIV =         313.0294     RIV_SYS1                         
                 RIV =           0.0000                   RIV =           0.0000     RIV_SYS2                         
                 RCH =      171270.0509                   RCH =        4565.7111     RCH_MSW                          

            TOTAL IN =      386556.1832              TOTAL IN =        5444.3775

          OUT:                                     OUT:
          ----                                     ----
              STO-SS =       65379.0872                STO-SS =        1729.7432     STORAGE                          
                 WEL =      110226.4337                   WEL =        1023.6542     RIV_CORR                         
                 DRN =       24454.5809                   DRN =         272.6787     DRN_SYS1                         
                 RIV =      100901.3465                   RIV =        1688.5565     RIV_SYS1                         
                 RIV =       66078.7386                   RIV =         729.7213     RIV_SYS2                         
                 RCH =       19516.7277                   RCH =           0.0000     RCH_MSW                          

           TOTAL OUT =      386556.9146             TOTAL OUT =        5444.3539

            IN - OUT =          -0.7314              IN - OUT =       2.3648E-02

 PERCENT DISCREPANCY =          -0.00     PERCENT DISCREPANCY =           0.00




         TIME SUMMARY AT END OF TIME STEP    1 IN STRESS PERIOD   91
                    SECONDS     MINUTES      HOURS       DAYS        YEARS
                    -----------------------------------------------------------
   TIME STEP LENGTH  86400.      1440.0      24.000      1.0000     2.73785E-03
 STRESS PERIOD TIME  86400.      1440.0      24.000      1.0000     2.73785E-03
         TOTAL TIME 7.86240E+06 1.31040E+05  2184.0      91.000     0.24914    


end timestep


start timestep kper="92" kstp="1" mode="normal"

 #Stressperiod Save Options

 BEGIN READING OUTPUT CONTROL FOR STRESS PERIOD 92
      ALL TIME STEPS WILL BE SAVED
      ALL TIME STEPS WILL BE SAVED

 END READING OUTPUT CONTROL FOR STRESS PERIOD 92


 PROCESSING STORAGE PERIOD DATA
 END PROCESSING STORAGE PERIOD DATA


 STRESS PERIOD 92 IS TRANSIENT


 REUSING WELS FROM LAST STRESS PERIOD

 REUSING DRNS FROM LAST STRESS PERIOD

 REUSING RIVS FROM LAST STRESS PERIOD

 REUSING RIVS FROM LAST STRESS PERIOD

 REUSING RCHS FROM LAST STRESS PERIOD
 UBDSV06 SAVING              DRN IN MODEL GWF_1            PACKAGE GWF_1           CONNECTED TO MODEL GWF_1            PACKAGE DRN_SYS1         ON UNIT   1019 AT TIME STEP      1, STRESS PERIOD     92
 UBDSV06 SAVING              RIV IN MODEL GWF_1            PACKAGE GWF_1           CONNECTED TO MODEL GWF_1            PACKAGE RIV_SYS1         ON UNIT   1019 AT TIME STEP      1, STRESS PERIOD     92
 UBDSV06 SAVING              RIV IN MODEL GWF_1            PACKAGE GWF_1           CONNECTED TO MODEL GWF_1            PACKAGE RIV_SYS2         ON UNIT   1019 AT TIME STEP      1, STRESS PERIOD     92

 HEAD WILL BE SAVED ON UNIT 1018 AT END OF TIME STEP    1, STRESS PERIOD   92


  VOLUME BUDGET FOR ENTIRE MODEL AT END OF TIME STEP    1, STRESS PERIOD  92
  ---------------------------------------------------------------------------------------------------

     CUMULATIVE VOLUME      L**3       RATES FOR THIS TIME STEP      L**3/T          PACKAGE NAME    
     ------------------                 ------------------------                     ----------------

           IN:                                      IN:
           ---                                      ---
              STO-SS =       87842.4866                STO-SS =         572.2005     STORAGE                          
                 WEL =       68094.5043                   WEL =         313.0294     RIV_CORR                         
                 DRN =           0.0000                   DRN =           0.0000     DRN_SYS1                         
                 RIV =       60827.6225                   RIV =         593.2513     RIV_SYS1                         
                 RIV =           0.0000                   RIV =           0.0000     RIV_SYS2                         
                 RCH =      173935.2893                   RCH =        2665.2383     RCH_MSW                          

            TOTAL IN =      390699.9027              TOTAL IN =        4143.7195

          OUT:                                     OUT:
          ----                                     ----
              STO-SS =       65719.9782                STO-SS =         340.8909     STORAGE                          
                 WEL =      111914.9901                   WEL =        1688.5565     RIV_CORR                         
                 DRN =       24728.7252                   DRN =         274.1442     DRN_SYS1                         
                 RIV =      101952.7855                   RIV =        1051.4390     RIV_SYS1                         
                 RIV =       66811.6300                   RIV =         732.8914     RIV_SYS2                         
                 RCH =       19572.4480                   RCH =          55.7203     RCH_MSW                          

           TOTAL OUT =      390700.5570             TOTAL OUT =        4143.6423

            IN - OUT =          -0.6542              IN - OUT =       7.7183E-02

 PERCENT DISCREPANCY =          -0.00     PERCENT DISCREPANCY =           0.00




         TIME SUMMARY AT END OF TIME STEP    1 IN STRESS PERIOD   92
                    SECONDS     MINUTES      HOURS       DAYS        YEARS
                    -----------------------------------------------------------
   TIME STEP LENGTH  86400.      1440.0      24.000      1.0000     2.73785E-03
 STRESS PERIOD TIME  86400.      1440.0      24.000      1.0000     2.73785E-03
         TOTAL TIME 7.94880E+06 1.32480E+05  2208.0      92.000     0.25188    


end timestep


start timestep kper="93" kstp="1" mode="normal"

 #Stressperiod Save Options

 BEGIN READING OUTPUT CONTROL FOR STRESS PERIOD 93
      ALL TIME STEPS WILL BE SAVED
      ALL TIME STEPS WILL BE SAVED

 END READING OUTPUT CONTROL FOR STRESS PERIOD 93


 PROCESSING STORAGE PERIOD DATA
 END PROCESSING STORAGE PERIOD DATA


 STRESS PERIOD 93 IS TRANSIENT


 REUSING WELS FROM LAST STRESS PERIOD

 REUSING DRNS FROM LAST STRESS PERIOD

 REUSING RIVS FROM LAST STRESS PERIOD

 REUSING RIVS FROM LAST STRESS PERIOD

 REUSING RCHS FROM LAST STRESS PERIOD
 UBDSV06 SAVING              DRN IN MODEL GWF_1            PACKAGE GWF_1           CONNECTED TO MODEL GWF_1            PACKAGE DRN_SYS1         ON UNIT   1019 AT TIME STEP      1, STRESS PERIOD     93
 UBDSV06 SAVING              RIV IN MODEL GWF_1            PACKAGE GWF_1           CONNECTED TO MODEL GWF_1            PACKAGE RIV_SYS1         ON UNIT   1019 AT TIME STEP      1, STRESS PERIOD     93
 UBDSV06 SAVING              RIV IN MODEL GWF_1            PACKAGE GWF_1           CONNECTED TO MODEL GWF_1            PACKAGE RIV_SYS2         ON UNIT   1019 AT TIME STEP      1, STRESS PERIOD     93

 HEAD WILL BE SAVED ON UNIT 1018 AT END OF TIME STEP    1, STRESS PERIOD   93


  VOLUME BUDGET FOR ENTIRE MODEL AT END OF TIME STEP    1, STRESS PERIOD  93
  ---------------------------------------------------------------------------------------------------

     CUMULATIVE VOLUME      L**3       RATES FOR THIS TIME STEP      L**3/T          PACKAGE NAME    
     ------------------                 ------------------------                     ----------------

           IN:                                      IN:
           ---                                      ---
              STO-SS =       88181.1590                STO-SS =         338.6724     STORAGE                          
                 WEL =       68687.7556                   WEL =         593.2513     RIV_CORR                         
                 DRN =           0.0000                   DRN =           0.0000     DRN_SYS1                         
                 RIV =       61312.7806                   RIV =         485.1580     RIV_SYS1                         
                 RIV =           0.0000                   RIV =           0.0000     RIV_SYS2                         
                 RCH =      175745.3486                   RCH =        1810.0593     RCH_MSW                          

            TOTAL IN =      393927.0438              TOTAL IN =        3227.1411

          OUT:                                     OUT:
          ----                                     ----
              STO-SS =       65777.8204                STO-SS =          57.8422     STORAGE                          
                 WEL =      112966.4291                   WEL =        1051.4390     RIV_CORR                         
                 DRN =       25002.7206                   DRN =         273.9955     DRN_SYS1                         
                 RIV =      103036.5887                   RIV =        1083.8032     RIV_SYS1                         
                 RIV =       67544.4181                   RIV =         732.7880     RIV_SYS2                         
                 RCH =       19599.8229                   RCH =          27.3749     RCH_MSW                          

           TOTAL OUT =      393927.7999             TOTAL OUT =        3227.2429

            IN - OUT =          -0.7561              IN - OUT =          -0.1019

 PERCENT DISCREPANCY =          -0.00     PERCENT DISCREPANCY =          -0.00




         TIME SUMMARY AT END OF TIME STEP    1 IN STRESS PERIOD   93
                    SECONDS     MINUTES      HOURS       DAYS        YEARS
                    -----------------------------------------------------------
   TIME STEP LENGTH  86400.      1440.0      24.000      1.0000     2.73785E-03
 STRESS PERIOD TIME  86400.      1440.0      24.000      1.0000     2.73785E-03
         TOTAL TIME 8.03520E+06 1.33920E+05  2232.0      93.000     0.25462    


end timestep


start timestep kper="94" kstp="1" mode="normal"

 #Stressperiod Save Options

 BEGIN READING OUTPUT CONTROL FOR STRESS PERIOD 94
      ALL TIME STEPS WILL BE SAVED
      ALL TIME STEPS WILL BE SAVED

 END READING OUTPUT CONTROL FOR STRESS PERIOD 94


 PROCESSING STORAGE PERIOD DATA
 END PROCESSING STORAGE PERIOD DATA


 STRESS PERIOD 94 IS TRANSIENT


 REUSING WELS FROM LAST STRESS PERIOD

 REUSING DRNS FROM LAST STRESS PERIOD

 REUSING RIVS FROM LAST STRESS PERIOD

 REUSING RIVS FROM LAST STRESS PERIOD

 REUSING RCHS FROM LAST STRESS PERIOD
 UBDSV06 SAVING              DRN IN MODEL GWF_1            PACKAGE GWF_1           CONNECTED TO MODEL GWF_1            PACKAGE DRN_SYS1         ON UNIT   1019 AT TIME STEP      1, STRESS PERIOD     94
 UBDSV06 SAVING              RIV IN MODEL GWF_1            PACKAGE GWF_1           CONNECTED TO MODEL GWF_1            PACKAGE RIV_SYS1         ON UNIT   1019 AT TIME STEP      1, STRESS PERIOD     94
 UBDSV06 SAVING              RIV IN MODEL GWF_1            PACKAGE GWF_1           CONNECTED TO MODEL GWF_1            PACKAGE RIV_SYS2         ON UNIT   1019 AT TIME STEP      1, STRESS PERIOD     94

 HEAD WILL BE SAVED ON UNIT 1018 AT END OF TIME STEP    1, STRESS PERIOD   94


  VOLUME BUDGET FOR ENTIRE MODEL AT END OF TIME STEP    1, STRESS PERIOD  94
  ---------------------------------------------------------------------------------------------------

     CUMULATIVE VOLUME      L**3       RATES FOR THIS TIME STEP      L**3/T          PACKAGE NAME    
     ------------------                 ------------------------                     ----------------

           IN:                                      IN:
           ---                                      ---
              STO-SS =       88181.1590                STO-SS =           0.0000     STORAGE                          
                 WEL =       69172.9136                   WEL =         485.1580     RIV_CORR                         
                 DRN =           0.0000                   DRN =           0.0000     DRN_SYS1                         
                 RIV =       61472.4868                   RIV =         159.7062     RIV_SYS1                         
                 RIV =           0.0000                   RIV =           0.0000     RIV_SYS2                         
                 RCH =      189352.7718                   RCH =       13607.4232     RCH_MSW                          

            TOTAL IN =      408179.3312              TOTAL IN =       14252.2874

          OUT:                                     OUT:
          ----                                     ----
              STO-SS =       74953.3229                STO-SS =        9175.5026     STORAGE                          
                 WEL =      114050.2324                   WEL =        1083.8032     RIV_CORR                         
                 DRN =       25294.6377                   DRN =         291.9171     DRN_SYS1                         
                 RIV =      105962.0298                   RIV =        2925.4410     RIV_SYS1                         
                 RIV =       68320.0382                   RIV =         775.6201     RIV_SYS2                         
                 RCH =       19599.8229                   RCH =           0.0000     RCH_MSW                          

           TOTAL OUT =      408180.0838             TOTAL OUT =       14252.2840

            IN - OUT =          -0.7526              IN - OUT =       3.4693E-03

 PERCENT DISCREPANCY =          -0.00     PERCENT DISCREPANCY =           0.00




         TIME SUMMARY AT END OF TIME STEP    1 IN STRESS PERIOD   94
                    SECONDS     MINUTES      HOURS       DAYS        YEARS
                    -----------------------------------------------------------
   TIME STEP LENGTH  86400.      1440.0      24.000      1.0000     2.73785E-03
 STRESS PERIOD TIME  86400.      1440.0      24.000      1.0000     2.73785E-03
         TOTAL TIME 8.12160E+06 1.35360E+05  2256.0      94.000     0.25736    


end timestep


start timestep kper="95" kstp="1" mode="normal"

 #Stressperiod Save Options

 BEGIN READING OUTPUT CONTROL FOR STRESS PERIOD 95
      ALL TIME STEPS WILL BE SAVED
      ALL TIME STEPS WILL BE SAVED

 END READING OUTPUT CONTROL FOR STRESS PERIOD 95


 PROCESSING STORAGE PERIOD DATA
 END PROCESSING STORAGE PERIOD DATA


 STRESS PERIOD 95 IS TRANSIENT


 REUSING WELS FROM LAST STRESS PERIOD

 REUSING DRNS FROM LAST STRESS PERIOD

 REUSING RIVS FROM LAST STRESS PERIOD

 REUSING RIVS FROM LAST STRESS PERIOD

 REUSING RCHS FROM LAST STRESS PERIOD
 UBDSV06 SAVING              DRN IN MODEL GWF_1            PACKAGE GWF_1           CONNECTED TO MODEL GWF_1            PACKAGE DRN_SYS1         ON UNIT   1019 AT TIME STEP      1, STRESS PERIOD     95
 UBDSV06 SAVING              RIV IN MODEL GWF_1            PACKAGE GWF_1           CONNECTED TO MODEL GWF_1            PACKAGE RIV_SYS1         ON UNIT   1019 AT TIME STEP      1, STRESS PERIOD     95
 UBDSV06 SAVING              RIV IN MODEL GWF_1            PACKAGE GWF_1           CONNECTED TO MODEL GWF_1            PACKAGE RIV_SYS2         ON UNIT   1019 AT TIME STEP      1, STRESS PERIOD     95

 HEAD WILL BE SAVED ON UNIT 1018 AT END OF TIME STEP    1, STRESS PERIOD   95


  VOLUME BUDGET FOR ENTIRE MODEL AT END OF TIME STEP    1, STRESS PERIOD  95
  ---------------------------------------------------------------------------------------------------

     CUMULATIVE VOLUME      L**3       RATES FOR THIS TIME STEP      L**3/T          PACKAGE NAME    
     ------------------                 ------------------------                     ----------------

           IN:                                      IN:
           ---                                      ---
              STO-SS =       90966.2180                STO-SS =        2785.0589     STORAGE                          
                 WEL =       69332.6198                   WEL =         159.7062     RIV_CORR                         
                 DRN =           0.0000                   DRN =           0.0000     DRN_SYS1                         
                 RIV =       62080.0511                   RIV =         607.5644     RIV_SYS1                         
                 RIV =           0.0000                   RIV =           0.0000     RIV_SYS2                         
                 RCH =      194040.5287                   RCH =        4687.7569     RCH_MSW                          

            TOTAL IN =      416419.4176              TOTAL IN =        8240.0864

          OUT:                                     OUT:
          ----                                     ----
              STO-SS =       76643.2760                STO-SS =        1689.9531     STORAGE                          
                 WEL =      116975.6734                   WEL =        2925.4410     RIV_CORR                         
                 DRN =       25590.2970                   DRN =         295.6593     DRN_SYS1                         
                 RIV =      107310.2128                   RIV =        1348.1830     RIV_SYS1                         
                 RIV =       69108.2093                   RIV =         788.1711     RIV_SYS2                         
                 RCH =       20792.4935                   RCH =        1192.6706     RCH_MSW                          

           TOTAL OUT =      416420.1619             TOTAL OUT =        8240.0781

            IN - OUT =          -0.7443              IN - OUT =       8.2842E-03

 PERCENT DISCREPANCY =          -0.00     PERCENT DISCREPANCY =           0.00




         TIME SUMMARY AT END OF TIME STEP    1 IN STRESS PERIOD   95
                    SECONDS     MINUTES      HOURS       DAYS        YEARS
                    -----------------------------------------------------------
   TIME STEP LENGTH  86400.      1440.0      24.000      1.0000     2.73785E-03
 STRESS PERIOD TIME  86400.      1440.0      24.000      1.0000     2.73785E-03
         TOTAL TIME 8.20800E+06 1.36800E+05  2280.0      95.000     0.26010    


end timestep


start timestep kper="96" kstp="1" mode="normal"

 #Stressperiod Save Options

 BEGIN READING OUTPUT CONTROL FOR STRESS PERIOD 96
      ALL TIME STEPS WILL BE SAVED
      ALL TIME STEPS WILL BE SAVED

 END READING OUTPUT CONTROL FOR STRESS PERIOD 96


 PROCESSING STORAGE PERIOD DATA
 END PROCESSING STORAGE PERIOD DATA


 STRESS PERIOD 96 IS TRANSIENT


 REUSING WELS FROM LAST STRESS PERIOD

 REUSING DRNS FROM LAST STRESS PERIOD

 REUSING RIVS FROM LAST STRESS PERIOD

 REUSING RIVS FROM LAST STRESS PERIOD

 REUSING RCHS FROM LAST STRESS PERIOD
 UBDSV06 SAVING              DRN IN MODEL GWF_1            PACKAGE GWF_1           CONNECTED TO MODEL GWF_1            PACKAGE DRN_SYS1         ON UNIT   1019 AT TIME STEP      1, STRESS PERIOD     96
 UBDSV06 SAVING              RIV IN MODEL GWF_1            PACKAGE GWF_1           CONNECTED TO MODEL GWF_1            PACKAGE RIV_SYS1         ON UNIT   1019 AT TIME STEP      1, STRESS PERIOD     96
 UBDSV06 SAVING              RIV IN MODEL GWF_1            PACKAGE GWF_1           CONNECTED TO MODEL GWF_1            PACKAGE RIV_SYS2         ON UNIT   1019 AT TIME STEP      1, STRESS PERIOD     96

 HEAD WILL BE SAVED ON UNIT 1018 AT END OF TIME STEP    1, STRESS PERIOD   96


  VOLUME BUDGET FOR ENTIRE MODEL AT END OF TIME STEP    1, STRESS PERIOD  96
  ---------------------------------------------------------------------------------------------------

     CUMULATIVE VOLUME      L**3       RATES FOR THIS TIME STEP      L**3/T          PACKAGE NAME    
     ------------------                 ------------------------                     ----------------

           IN:                                      IN:
           ---                                      ---
              STO-SS =       91742.6497                STO-SS =         776.4317     STORAGE                          
                 WEL =       69940.1842                   WEL =         607.5644     RIV_CORR                         
                 DRN =           0.0000                   DRN =           0.0000     DRN_SYS1                         
                 RIV =       62426.9788                   RIV =         346.9277     RIV_SYS1                         
                 RIV =           0.0000                   RIV =           0.0000     RIV_SYS2                         
                 RCH =      196956.1622                   RCH =        2915.6334     RCH_MSW                          

            TOTAL IN =      421065.9749              TOTAL IN =        4646.5572

          OUT:                                     OUT:
          ----                                     ----
              STO-SS =       77264.6785                STO-SS =         621.4025     STORAGE                          
                 WEL =      118323.8564                   WEL =        1348.1830     RIV_CORR                         
                 DRN =       25884.9282                   DRN =         294.6312     DRN_SYS1                         
                 RIV =      108899.5417                   RIV =        1589.3290     RIV_SYS1                         
                 RIV =       69895.7332                   RIV =         787.5239     RIV_SYS2                         
                 RCH =       20798.0630                   RCH =           5.5695     RCH_MSW                          

           TOTAL OUT =      421066.8011             TOTAL OUT =        4646.6392

            IN - OUT =          -0.8263              IN - OUT =      -8.1988E-02

 PERCENT DISCREPANCY =          -0.00     PERCENT DISCREPANCY =          -0.00




         TIME SUMMARY AT END OF TIME STEP    1 IN STRESS PERIOD   96
                    SECONDS     MINUTES      HOURS       DAYS        YEARS
                    -----------------------------------------------------------
   TIME STEP LENGTH  86400.      1440.0      24.000      1.0000     2.73785E-03
 STRESS PERIOD TIME  86400.      1440.0      24.000      1.0000     2.73785E-03
         TOTAL TIME 8.29440E+06 1.38240E+05  2304.0      96.000     0.26283    


end timestep


start timestep kper="97" kstp="1" mode="normal"

 #Stressperiod Save Options

 BEGIN READING OUTPUT CONTROL FOR STRESS PERIOD 97
      ALL TIME STEPS WILL BE SAVED
      ALL TIME STEPS WILL BE SAVED

 END READING OUTPUT CONTROL FOR STRESS PERIOD 97


 PROCESSING STORAGE PERIOD DATA
 END PROCESSING STORAGE PERIOD DATA


 STRESS PERIOD 97 IS TRANSIENT


 REUSING WELS FROM LAST STRESS PERIOD

 REUSING DRNS FROM LAST STRESS PERIOD

 REUSING RIVS FROM LAST STRESS PERIOD

 REUSING RIVS FROM LAST STRESS PERIOD

 REUSING RCHS FROM LAST STRESS PERIOD
 UBDSV06 SAVING              DRN IN MODEL GWF_1            PACKAGE GWF_1           CONNECTED TO MODEL GWF_1            PACKAGE DRN_SYS1         ON UNIT   1019 AT TIME STEP      1, STRESS PERIOD     97
 UBDSV06 SAVING              RIV IN MODEL GWF_1            PACKAGE GWF_1           CONNECTED TO MODEL GWF_1            PACKAGE RIV_SYS1         ON UNIT   1019 AT TIME STEP      1, STRESS PERIOD     97
 UBDSV06 SAVING              RIV IN MODEL GWF_1            PACKAGE GWF_1           CONNECTED TO MODEL GWF_1            PACKAGE RIV_SYS2         ON UNIT   1019 AT TIME STEP      1, STRESS PERIOD     97

 HEAD WILL BE SAVED ON UNIT 1018 AT END OF TIME STEP    1, STRESS PERIOD   97


  VOLUME BUDGET FOR ENTIRE MODEL AT END OF TIME STEP    1, STRESS PERIOD  97
  ---------------------------------------------------------------------------------------------------

     CUMULATIVE VOLUME      L**3       RATES FOR THIS TIME STEP      L**3/T          PACKAGE NAME    
     ------------------                 ------------------------                     ----------------

           IN:                                      IN:
           ---                                      ---
              STO-SS =       92966.6261                STO-SS =        1223.9764     STORAGE                          
                 WEL =       70287.1119                   WEL =         346.9277     RIV_CORR                         
                 DRN =           0.0000                   DRN =           0.0000     DRN_SYS1                         
                 RIV =       62893.1814                   RIV =         466.2026     RIV_SYS1                         
                 RIV =           0.0000                   RIV =           0.0000     RIV_SYS2                         
                 RCH =      198907.0185                   RCH =        1950.8563     RCH_MSW                          

            TOTAL IN =      425053.9378              TOTAL IN =        3987.9630

          OUT:                                     OUT:
          ----                                     ----
              STO-SS =       77357.3619                STO-SS =          92.6834     STORAGE                          
                 WEL =      119913.1854                   WEL =        1589.3290     RIV_CORR                         
                 DRN =       26177.1084                   DRN =         292.1802     DRN_SYS1                         
                 RIV =      110118.1922                   RIV =        1218.6504     RIV_SYS1                         
                 RIV =       70677.6970                   RIV =         781.9638     RIV_SYS2                         
                 RCH =       20811.2203                   RCH =          13.1572     RCH_MSW                          

           TOTAL OUT =      425054.7652             TOTAL OUT =        3987.9640

            IN - OUT =          -0.8274              IN - OUT =      -1.0662E-03

 PERCENT DISCREPANCY =          -0.00     PERCENT DISCREPANCY =          -0.00




         TIME SUMMARY AT END OF TIME STEP    1 IN STRESS PERIOD   97
                    SECONDS     MINUTES      HOURS       DAYS        YEARS
                    -----------------------------------------------------------
   TIME STEP LENGTH  86400.      1440.0      24.000      1.0000     2.73785E-03
 STRESS PERIOD TIME  86400.      1440.0      24.000      1.0000     2.73785E-03
         TOTAL TIME 8.38080E+06 1.39680E+05  2328.0      97.000     0.26557    


end timestep


start timestep kper="98" kstp="1" mode="normal"

 #Stressperiod Save Options

 BEGIN READING OUTPUT CONTROL FOR STRESS PERIOD 98
      ALL TIME STEPS WILL BE SAVED
      ALL TIME STEPS WILL BE SAVED

 END READING OUTPUT CONTROL FOR STRESS PERIOD 98


 PROCESSING STORAGE PERIOD DATA
 END PROCESSING STORAGE PERIOD DATA


 STRESS PERIOD 98 IS TRANSIENT


 REUSING WELS FROM LAST STRESS PERIOD

 REUSING DRNS FROM LAST STRESS PERIOD

 REUSING RIVS FROM LAST STRESS PERIOD

 REUSING RIVS FROM LAST STRESS PERIOD

 REUSING RCHS FROM LAST STRESS PERIOD
 UBDSV06 SAVING              DRN IN MODEL GWF_1            PACKAGE GWF_1           CONNECTED TO MODEL GWF_1            PACKAGE DRN_SYS1         ON UNIT   1019 AT TIME STEP      1, STRESS PERIOD     98
 UBDSV06 SAVING              RIV IN MODEL GWF_1            PACKAGE GWF_1           CONNECTED TO MODEL GWF_1            PACKAGE RIV_SYS1         ON UNIT   1019 AT TIME STEP      1, STRESS PERIOD     98
 UBDSV06 SAVING              RIV IN MODEL GWF_1            PACKAGE GWF_1           CONNECTED TO MODEL GWF_1            PACKAGE RIV_SYS2         ON UNIT   1019 AT TIME STEP      1, STRESS PERIOD     98

 HEAD WILL BE SAVED ON UNIT 1018 AT END OF TIME STEP    1, STRESS PERIOD   98


  VOLUME BUDGET FOR ENTIRE MODEL AT END OF TIME STEP    1, STRESS PERIOD  98
  ---------------------------------------------------------------------------------------------------

     CUMULATIVE VOLUME      L**3       RATES FOR THIS TIME STEP      L**3/T          PACKAGE NAME    
     ------------------                 ------------------------                     ----------------

           IN:                                      IN:
           ---                                      ---
              STO-SS =       93372.8409                STO-SS =         406.2147     STORAGE                          
                 WEL =       70753.3144                   WEL =         466.2026     RIV_CORR                         
                 DRN =           0.0000                   DRN =           0.0000     DRN_SYS1                         
                 RIV =       63229.5331                   RIV =         336.3517     RIV_SYS1                         
                 RIV =           0.0000                   RIV =           0.0000     RIV_SYS2                         
                 RCH =      201895.8766                   RCH =        2988.8582     RCH_MSW                          

            TOTAL IN =      429251.5650              TOTAL IN =        4197.6271

          OUT:                                     OUT:
          ----                                     ----
              STO-SS =       77673.0499                STO-SS =         315.6880     STORAGE                          
                 WEL =      121131.8358                   WEL =        1218.6504     RIV_CORR                         
                 DRN =       26468.1153                   DRN =         291.0068     DRN_SYS1                         
                 RIV =      111711.8859                   RIV =        1593.6937     RIV_SYS1                         
                 RIV =       71456.2729                   RIV =         778.5759     RIV_SYS2                         
                 RCH =       20811.2203                   RCH =           0.0000     RCH_MSW                          

           TOTAL OUT =      429252.3801             TOTAL OUT =        4197.6149

            IN - OUT =          -0.8152              IN - OUT =       1.2206E-02

 PERCENT DISCREPANCY =          -0.00     PERCENT DISCREPANCY =           0.00




         TIME SUMMARY AT END OF TIME STEP    1 IN STRESS PERIOD   98
                    SECONDS     MINUTES      HOURS       DAYS        YEARS
                    -----------------------------------------------------------
   TIME STEP LENGTH  86400.      1440.0      24.000      1.0000     2.73785E-03
 STRESS PERIOD TIME  86400.      1440.0      24.000      1.0000     2.73785E-03
         TOTAL TIME 8.46720E+06 1.41120E+05  2352.0      98.000     0.26831    


end timestep


start timestep kper="99" kstp="1" mode="normal"

 #Stressperiod Save Options

 BEGIN READING OUTPUT CONTROL FOR STRESS PERIOD 99
      ALL TIME STEPS WILL BE SAVED
      ALL TIME STEPS WILL BE SAVED

 END READING OUTPUT CONTROL FOR STRESS PERIOD 99


 PROCESSING STORAGE PERIOD DATA
 END PROCESSING STORAGE PERIOD DATA


 STRESS PERIOD 99 IS TRANSIENT


 REUSING WELS FROM LAST STRESS PERIOD

 REUSING DRNS FROM LAST STRESS PERIOD

 REUSING RIVS FROM LAST STRESS PERIOD

 REUSING RIVS FROM LAST STRESS PERIOD

 REUSING RCHS FROM LAST STRESS PERIOD
 UBDSV06 SAVING              DRN IN MODEL GWF_1            PACKAGE GWF_1           CONNECTED TO MODEL GWF_1            PACKAGE DRN_SYS1         ON UNIT   1019 AT TIME STEP      1, STRESS PERIOD     99
 UBDSV06 SAVING              RIV IN MODEL GWF_1            PACKAGE GWF_1           CONNECTED TO MODEL GWF_1            PACKAGE RIV_SYS1         ON UNIT   1019 AT TIME STEP      1, STRESS PERIOD     99
 UBDSV06 SAVING              RIV IN MODEL GWF_1            PACKAGE GWF_1           CONNECTED TO MODEL GWF_1            PACKAGE RIV_SYS2         ON UNIT   1019 AT TIME STEP      1, STRESS PERIOD     99

 HEAD WILL BE SAVED ON UNIT 1018 AT END OF TIME STEP    1, STRESS PERIOD   99


  VOLUME BUDGET FOR ENTIRE MODEL AT END OF TIME STEP    1, STRESS PERIOD  99
  ---------------------------------------------------------------------------------------------------

     CUMULATIVE VOLUME      L**3       RATES FOR THIS TIME STEP      L**3/T          PACKAGE NAME    
     ------------------                 ------------------------                     ----------------

           IN:                                      IN:
           ---                                      ---
              STO-SS =       93612.4868                STO-SS =         239.6459     STORAGE                          
                 WEL =       71089.6661                   WEL =         336.3517     RIV_CORR                         
                 DRN =           0.0000                   DRN =           0.0000     DRN_SYS1                         
                 RIV =       63591.6085                   RIV =         362.0755     RIV_SYS1                         
                 RIV =           0.0000                   RIV =           0.0000     RIV_SYS2                         
                 RCH =      205010.8216                   RCH =        3114.9450     RCH_MSW                          

            TOTAL IN =      433304.5830              TOTAL IN =        4053.0180

          OUT:                                     OUT:
          ----                                     ----
              STO-SS =       77702.0578                STO-SS =          29.0079     STORAGE                          
                 WEL =      122725.5296                   WEL =        1593.6937     RIV_CORR                         
                 DRN =       26758.8810                   DRN =         290.7658     DRN_SYS1                         
                 RIV =      113074.2268                   RIV =        1362.3409     RIV_SYS1                         
                 RIV =       72233.5180                   RIV =         777.2451     RIV_SYS2                         
                 RCH =       20811.2203                   RCH =           0.0000     RCH_MSW                          

           TOTAL OUT =      433305.4334             TOTAL OUT =        4053.0533

            IN - OUT =          -0.8505              IN - OUT =      -3.5307E-02

 PERCENT DISCREPANCY =          -0.00     PERCENT DISCREPANCY =          -0.00




         TIME SUMMARY AT END OF TIME STEP    1 IN STRESS PERIOD   99
                    SECONDS     MINUTES      HOURS       DAYS        YEARS
                    -----------------------------------------------------------
   TIME STEP LENGTH  86400.      1440.0      24.000      1.0000     2.73785E-03
 STRESS PERIOD TIME  86400.      1440.0      24.000      1.0000     2.73785E-03
         TOTAL TIME 8.55360E+06 1.42560E+05  2376.0      99.000     0.27105    


end timestep


start timestep kper="100" kstp="1" mode="normal"

 #Stressperiod Save Options

 BEGIN READING OUTPUT CONTROL FOR STRESS PERIOD 100
      ALL TIME STEPS WILL BE SAVED
      ALL TIME STEPS WILL BE SAVED

 END READING OUTPUT CONTROL FOR STRESS PERIOD 100


 PROCESSING STORAGE PERIOD DATA
 END PROCESSING STORAGE PERIOD DATA


 STRESS PERIOD 100 IS TRANSIENT


 REUSING WELS FROM LAST STRESS PERIOD

 REUSING DRNS FROM LAST STRESS PERIOD

 REUSING RIVS FROM LAST STRESS PERIOD

 REUSING RIVS FROM LAST STRESS PERIOD

 REUSING RCHS FROM LAST STRESS PERIOD
 UBDSV06 SAVING              DRN IN MODEL GWF_1            PACKAGE GWF_1           CONNECTED TO MODEL GWF_1            PACKAGE DRN_SYS1         ON UNIT   1019 AT TIME STEP      1, STRESS PERIOD    100
 UBDSV06 SAVING              RIV IN MODEL GWF_1            PACKAGE GWF_1           CONNECTED TO MODEL GWF_1            PACKAGE RIV_SYS1         ON UNIT   1019 AT TIME STEP      1, STRESS PERIOD    100
 UBDSV06 SAVING              RIV IN MODEL GWF_1            PACKAGE GWF_1           CONNECTED TO MODEL GWF_1            PACKAGE RIV_SYS2         ON UNIT   1019 AT TIME STEP      1, STRESS PERIOD    100

 HEAD WILL BE SAVED ON UNIT 1018 AT END OF TIME STEP    1, STRESS PERIOD  100


  VOLUME BUDGET FOR ENTIRE MODEL AT END OF TIME STEP    1, STRESS PERIOD 100
  ---------------------------------------------------------------------------------------------------

     CUMULATIVE VOLUME      L**3       RATES FOR THIS TIME STEP      L**3/T          PACKAGE NAME    
     ------------------                 ------------------------                     ----------------

           IN:                                      IN:
           ---                                      ---
              STO-SS =       94515.2901                STO-SS =         902.8034     STORAGE                          
                 WEL =       71451.7416                   WEL =         362.0755     RIV_CORR                         
                 DRN =           0.0000                   DRN =           0.0000     DRN_SYS1                         
                 RIV =       64021.2655                   RIV =         429.6569     RIV_SYS1                         
                 RIV =           0.0000                   RIV =           0.0000     RIV_SYS2                         
                 RCH =      206954.4371                   RCH =        1943.6155     RCH_MSW                          

            TOTAL IN =      436942.7343              TOTAL IN =        3638.1513

          OUT:                                     OUT:
          ----                                     ----
              STO-SS =       77702.1790                STO-SS =           0.1211     STORAGE                          
                 WEL =      124087.8704                   WEL =        1362.3409     RIV_CORR                         
                 DRN =       27048.2320                   DRN =         289.3510     DRN_SYS1                         
                 RIV =      114286.4117                   RIV =        1212.1850     RIV_SYS1                         
                 RIV =       73007.0904                   RIV =         773.5724     RIV_SYS2                         
                 RCH =       20811.8417                   RCH =           0.6215     RCH_MSW                          

           TOTAL OUT =      436943.6253             TOTAL OUT =        3638.1919

            IN - OUT =          -0.8910              IN - OUT =      -4.0569E-02

 PERCENT DISCREPANCY =          -0.00     PERCENT DISCREPANCY =          -0.00




         TIME SUMMARY AT END OF TIME STEP    1 IN STRESS PERIOD  100
                    SECONDS     MINUTES      HOURS       DAYS        YEARS
                    -----------------------------------------------------------
   TIME STEP LENGTH  86400.      1440.0      24.000      1.0000     2.73785E-03
 STRESS PERIOD TIME  86400.      1440.0      24.000      1.0000     2.73785E-03
         TOTAL TIME 8.64000E+06 1.44000E+05  2400.0      100.00     0.27379    


end timestep


start timestep kper="101" kstp="1" mode="normal"

 #Stressperiod Save Options

 BEGIN READING OUTPUT CONTROL FOR STRESS PERIOD 101
      ALL TIME STEPS WILL BE SAVED
      ALL TIME STEPS WILL BE SAVED

 END READING OUTPUT CONTROL FOR STRESS PERIOD 101


 PROCESSING STORAGE PERIOD DATA
 END PROCESSING STORAGE PERIOD DATA


 STRESS PERIOD 101 IS TRANSIENT


 REUSING WELS FROM LAST STRESS PERIOD

 REUSING DRNS FROM LAST STRESS PERIOD

 REUSING RIVS FROM LAST STRESS PERIOD

 REUSING RIVS FROM LAST STRESS PERIOD

 REUSING RCHS FROM LAST STRESS PERIOD
 UBDSV06 SAVING              DRN IN MODEL GWF_1            PACKAGE GWF_1           CONNECTED TO MODEL GWF_1            PACKAGE DRN_SYS1         ON UNIT   1019 AT TIME STEP      1, STRESS PERIOD    101
 UBDSV06 SAVING              RIV IN MODEL GWF_1            PACKAGE GWF_1           CONNECTED TO MODEL GWF_1            PACKAGE RIV_SYS1         ON UNIT   1019 AT TIME STEP      1, STRESS PERIOD    101
 UBDSV06 SAVING              RIV IN MODEL GWF_1            PACKAGE GWF_1           CONNECTED TO MODEL GWF_1            PACKAGE RIV_SYS2         ON UNIT   1019 AT TIME STEP      1, STRESS PERIOD    101

 HEAD WILL BE SAVED ON UNIT 1018 AT END OF TIME STEP    1, STRESS PERIOD  101


  VOLUME BUDGET FOR ENTIRE MODEL AT END OF TIME STEP    1, STRESS PERIOD 101
  ---------------------------------------------------------------------------------------------------

     CUMULATIVE VOLUME      L**3       RATES FOR THIS TIME STEP      L**3/T          PACKAGE NAME    
     ------------------                 ------------------------                     ----------------

           IN:                                      IN:
           ---                                      ---
              STO-SS =       96115.6979                STO-SS =        1600.4078     STORAGE                          
                 WEL =       71881.3985                   WEL =         429.6569     RIV_CORR                         
                 DRN =           0.0000                   DRN =           0.0000     DRN_SYS1                         
                 RIV =       64618.3898                   RIV =         597.1243     RIV_SYS1                         
                 RIV =           0.0000                   RIV =           0.0000     RIV_SYS2                         
                 RCH =      208113.3361                   RCH =        1158.8990     RCH_MSW                          

            TOTAL IN =      440728.8223              TOTAL IN =        3786.0880

          OUT:                                     OUT:
          ----                                     ----
              STO-SS =       77702.1790                STO-SS =           0.0000     STORAGE                          
                 WEL =      125300.0554                   WEL =        1212.1850     RIV_CORR                         
                 DRN =       27334.6943                   DRN =         286.4623     DRN_SYS1                         
                 RIV =      115376.7602                   RIV =        1090.3485     RIV_SYS1                         
                 RIV =       73773.6418                   RIV =         766.5514     RIV_SYS2                         
                 RCH =       21242.3870                   RCH =         430.5453     RCH_MSW                          

           TOTAL OUT =      440729.7177             TOTAL OUT =        3786.0924

            IN - OUT =          -0.8954              IN - OUT =      -4.3593E-03

 PERCENT DISCREPANCY =          -0.00     PERCENT DISCREPANCY =          -0.00




         TIME SUMMARY AT END OF TIME STEP    1 IN STRESS PERIOD  101
                    SECONDS     MINUTES      HOURS       DAYS        YEARS
                    -----------------------------------------------------------
   TIME STEP LENGTH  86400.      1440.0      24.000      1.0000     2.73785E-03
 STRESS PERIOD TIME  86400.      1440.0      24.000      1.0000     2.73785E-03
         TOTAL TIME 8.72640E+06 1.45440E+05  2424.0      101.00     0.27652    


end timestep


start timestep kper="102" kstp="1" mode="normal"

 #Stressperiod Save Options

 BEGIN READING OUTPUT CONTROL FOR STRESS PERIOD 102
      ALL TIME STEPS WILL BE SAVED
      ALL TIME STEPS WILL BE SAVED

 END READING OUTPUT CONTROL FOR STRESS PERIOD 102


 PROCESSING STORAGE PERIOD DATA
 END PROCESSING STORAGE PERIOD DATA


 STRESS PERIOD 102 IS TRANSIENT


 REUSING WELS FROM LAST STRESS PERIOD

 REUSING DRNS FROM LAST STRESS PERIOD

 REUSING RIVS FROM LAST STRESS PERIOD

 REUSING RIVS FROM LAST STRESS PERIOD

 REUSING RCHS FROM LAST STRESS PERIOD
 UBDSV06 SAVING              DRN IN MODEL GWF_1            PACKAGE GWF_1           CONNECTED TO MODEL GWF_1            PACKAGE DRN_SYS1         ON UNIT   1019 AT TIME STEP      1, STRESS PERIOD    102
 UBDSV06 SAVING              RIV IN MODEL GWF_1            PACKAGE GWF_1           CONNECTED TO MODEL GWF_1            PACKAGE RIV_SYS1         ON UNIT   1019 AT TIME STEP      1, STRESS PERIOD    102
 UBDSV06 SAVING              RIV IN MODEL GWF_1            PACKAGE GWF_1           CONNECTED TO MODEL GWF_1            PACKAGE RIV_SYS2         ON UNIT   1019 AT TIME STEP      1, STRESS PERIOD    102

 HEAD WILL BE SAVED ON UNIT 1018 AT END OF TIME STEP    1, STRESS PERIOD  102


  VOLUME BUDGET FOR ENTIRE MODEL AT END OF TIME STEP    1, STRESS PERIOD 102
  ---------------------------------------------------------------------------------------------------

     CUMULATIVE VOLUME      L**3       RATES FOR THIS TIME STEP      L**3/T          PACKAGE NAME    
     ------------------                 ------------------------                     ----------------

           IN:                                      IN:
           ---                                      ---
              STO-SS =       97764.1548                STO-SS =        1648.4569     STORAGE                          
                 WEL =       72478.5228                   WEL =         597.1243     RIV_CORR                         
                 DRN =           0.0000                   DRN =           0.0000     DRN_SYS1                         
                 RIV =       65190.9671                   RIV =         572.5774     RIV_SYS1                         
                 RIV =           0.0000                   RIV =           0.0000     RIV_SYS2                         
                 RCH =      208891.8323                   RCH =         778.4962     RCH_MSW                          

            TOTAL IN =      444325.4771              TOTAL IN =        3596.6548

          OUT:                                     OUT:
          ----                                     ----
              STO-SS =       77710.0763                STO-SS =           7.8973     STORAGE                          
                 WEL =      126390.4039                   WEL =        1090.3485     RIV_CORR                         
                 DRN =       27617.7502                   DRN =         283.0558     DRN_SYS1                         
                 RIV =      116412.5524                   RIV =        1035.7921     RIV_SYS1                         
                 RIV =       74531.7649                   RIV =         758.1231     RIV_SYS2                         
                 RCH =       21663.8313                   RCH =         421.4443     RCH_MSW                          

           TOTAL OUT =      444326.3789             TOTAL OUT =        3596.6612

            IN - OUT =          -0.9018              IN - OUT =      -6.4579E-03

 PERCENT DISCREPANCY =          -0.00     PERCENT DISCREPANCY =          -0.00




         TIME SUMMARY AT END OF TIME STEP    1 IN STRESS PERIOD  102
                    SECONDS     MINUTES      HOURS       DAYS        YEARS
                    -----------------------------------------------------------
   TIME STEP LENGTH  86400.      1440.0      24.000      1.0000     2.73785E-03
 STRESS PERIOD TIME  86400.      1440.0      24.000      1.0000     2.73785E-03
         TOTAL TIME 8.81280E+06 1.46880E+05  2448.0      102.00     0.27926    


end timestep


start timestep kper="103" kstp="1" mode="normal"

 #Stressperiod Save Options

 BEGIN READING OUTPUT CONTROL FOR STRESS PERIOD 103
      ALL TIME STEPS WILL BE SAVED
      ALL TIME STEPS WILL BE SAVED

 END READING OUTPUT CONTROL FOR STRESS PERIOD 103


 PROCESSING STORAGE PERIOD DATA
 END PROCESSING STORAGE PERIOD DATA


 STRESS PERIOD 103 IS TRANSIENT


 REUSING WELS FROM LAST STRESS PERIOD

 REUSING DRNS FROM LAST STRESS PERIOD

 REUSING RIVS FROM LAST STRESS PERIOD

 REUSING RIVS FROM LAST STRESS PERIOD

 REUSING RCHS FROM LAST STRESS PERIOD
 UBDSV06 SAVING              DRN IN MODEL GWF_1            PACKAGE GWF_1           CONNECTED TO MODEL GWF_1            PACKAGE DRN_SYS1         ON UNIT   1019 AT TIME STEP      1, STRESS PERIOD    103
 UBDSV06 SAVING              RIV IN MODEL GWF_1            PACKAGE GWF_1           CONNECTED TO MODEL GWF_1            PACKAGE RIV_SYS1         ON UNIT   1019 AT TIME STEP      1, STRESS PERIOD    103
 UBDSV06 SAVING              RIV IN MODEL GWF_1            PACKAGE GWF_1           CONNECTED TO MODEL GWF_1            PACKAGE RIV_SYS2         ON UNIT   1019 AT TIME STEP      1, STRESS PERIOD    103

 HEAD WILL BE SAVED ON UNIT 1018 AT END OF TIME STEP    1, STRESS PERIOD  103


  VOLUME BUDGET FOR ENTIRE MODEL AT END OF TIME STEP    1, STRESS PERIOD 103
  ---------------------------------------------------------------------------------------------------

     CUMULATIVE VOLUME      L**3       RATES FOR THIS TIME STEP      L**3/T          PACKAGE NAME    
     ------------------                 ------------------------                     ----------------

           IN:                                      IN:
           ---                                      ---
              STO-SS =       99577.4276                STO-SS =        1813.2728     STORAGE                          
                 WEL =       73051.1002                   WEL =         572.5774     RIV_CORR                         
                 DRN =           0.0000                   DRN =           0.0000     DRN_SYS1                         
                 RIV =       65865.8749                   RIV =         674.9078     RIV_SYS1                         
                 RIV =           0.0000                   RIV =           0.0000     RIV_SYS2                         
                 RCH =      209429.7119                   RCH =         537.8796     RCH_MSW                          

            TOTAL IN =      447924.1146              TOTAL IN =        3598.6376

          OUT:                                     OUT:
          ----                                     ----
              STO-SS =       77710.0763                STO-SS =           0.0000     STORAGE                          
                 WEL =      127426.1960                   WEL =        1035.7921     RIV_CORR                         
                 DRN =       27897.2665                   DRN =         279.5163     DRN_SYS1                         
                 RIV =      117394.8376                   RIV =         982.2852     RIV_SYS1                         
                 RIV =       75280.9332                   RIV =         749.1682     RIV_SYS2                         
                 RCH =       22215.8402                   RCH =         552.0089     RCH_MSW                          

           TOTAL OUT =      447925.1498             TOTAL OUT =        3598.7709

            IN - OUT =          -1.0351              IN - OUT =          -0.1333

 PERCENT DISCREPANCY =          -0.00     PERCENT DISCREPANCY =          -0.00




         TIME SUMMARY AT END OF TIME STEP    1 IN STRESS PERIOD  103
                    SECONDS     MINUTES      HOURS       DAYS        YEARS
                    -----------------------------------------------------------
   TIME STEP LENGTH  86400.      1440.0      24.000      1.0000     2.73785E-03
 STRESS PERIOD TIME  86400.      1440.0      24.000      1.0000     2.73785E-03
         TOTAL TIME 8.89920E+06 1.48320E+05  2472.0      103.00     0.28200    


end timestep


start timestep kper="104" kstp="1" mode="normal"

 #Stressperiod Save Options

 BEGIN READING OUTPUT CONTROL FOR STRESS PERIOD 104
      ALL TIME STEPS WILL BE SAVED
      ALL TIME STEPS WILL BE SAVED

 END READING OUTPUT CONTROL FOR STRESS PERIOD 104


 PROCESSING STORAGE PERIOD DATA
 END PROCESSING STORAGE PERIOD DATA


 STRESS PERIOD 104 IS TRANSIENT


 REUSING WELS FROM LAST STRESS PERIOD

 REUSING DRNS FROM LAST STRESS PERIOD

 REUSING RIVS FROM LAST STRESS PERIOD

 REUSING RIVS FROM LAST STRESS PERIOD

 REUSING RCHS FROM LAST STRESS PERIOD
 UBDSV06 SAVING              DRN IN MODEL GWF_1            PACKAGE GWF_1           CONNECTED TO MODEL GWF_1            PACKAGE DRN_SYS1         ON UNIT   1019 AT TIME STEP      1, STRESS PERIOD    104
 UBDSV06 SAVING              RIV IN MODEL GWF_1            PACKAGE GWF_1           CONNECTED TO MODEL GWF_1            PACKAGE RIV_SYS1         ON UNIT   1019 AT TIME STEP      1, STRESS PERIOD    104
 UBDSV06 SAVING              RIV IN MODEL GWF_1            PACKAGE GWF_1           CONNECTED TO MODEL GWF_1            PACKAGE RIV_SYS2         ON UNIT   1019 AT TIME STEP      1, STRESS PERIOD    104

 HEAD WILL BE SAVED ON UNIT 1018 AT END OF TIME STEP    1, STRESS PERIOD  104


  VOLUME BUDGET FOR ENTIRE MODEL AT END OF TIME STEP    1, STRESS PERIOD 104
  ---------------------------------------------------------------------------------------------------

     CUMULATIVE VOLUME      L**3       RATES FOR THIS TIME STEP      L**3/T          PACKAGE NAME    
     ------------------                 ------------------------                     ----------------

           IN:                                      IN:
           ---                                      ---
              STO-SS =      101165.9548                STO-SS =        1588.5271     STORAGE                          
                 WEL =       73726.0080                   WEL =         674.9078     RIV_CORR                         
                 DRN =           0.0000                   DRN =           0.0000     DRN_SYS1                         
                 RIV =       66449.2523                   RIV =         583.3773     RIV_SYS1                         
                 RIV =           0.0000                   RIV =           0.0000     RIV_SYS2                         
                 RCH =      209849.1469                   RCH =         419.4350     RCH_MSW                          

            TOTAL IN =      451190.3619              TOTAL IN =        3266.2473

          OUT:                                     OUT:
          ----                                     ----
              STO-SS =       77738.8667                STO-SS =          28.7904     STORAGE                          
                 WEL =      128408.4813                   WEL =         982.2852     RIV_CORR                         
                 DRN =       28173.5092                   DRN =         276.2427     DRN_SYS1                         
                 RIV =      118351.1191                   RIV =         956.2815     RIV_SYS1                         
                 RIV =       76021.7170                   RIV =         740.7838     RIV_SYS2                         
                 RCH =       22497.7063                   RCH =         281.8661     RCH_MSW                          

           TOTAL OUT =      451191.3995             TOTAL OUT =        3266.2497

            IN - OUT =          -1.0376              IN - OUT =      -2.4201E-03

 PERCENT DISCREPANCY =          -0.00     PERCENT DISCREPANCY =          -0.00




         TIME SUMMARY AT END OF TIME STEP    1 IN STRESS PERIOD  104
                    SECONDS     MINUTES      HOURS       DAYS        YEARS
                    -----------------------------------------------------------
   TIME STEP LENGTH  86400.      1440.0      24.000      1.0000     2.73785E-03
 STRESS PERIOD TIME  86400.      1440.0      24.000      1.0000     2.73785E-03
         TOTAL TIME 8.98560E+06 1.49760E+05  2496.0      104.00     0.28474    


end timestep


start timestep kper="105" kstp="1" mode="normal"

 #Stressperiod Save Options

 BEGIN READING OUTPUT CONTROL FOR STRESS PERIOD 105
      ALL TIME STEPS WILL BE SAVED
      ALL TIME STEPS WILL BE SAVED

 END READING OUTPUT CONTROL FOR STRESS PERIOD 105


 PROCESSING STORAGE PERIOD DATA
 END PROCESSING STORAGE PERIOD DATA


 STRESS PERIOD 105 IS TRANSIENT


 REUSING WELS FROM LAST STRESS PERIOD

 REUSING DRNS FROM LAST STRESS PERIOD

 REUSING RIVS FROM LAST STRESS PERIOD

 REUSING RIVS FROM LAST STRESS PERIOD

 REUSING RCHS FROM LAST STRESS PERIOD
 UBDSV06 SAVING              DRN IN MODEL GWF_1            PACKAGE GWF_1           CONNECTED TO MODEL GWF_1            PACKAGE DRN_SYS1         ON UNIT   1019 AT TIME STEP      1, STRESS PERIOD    105
 UBDSV06 SAVING              RIV IN MODEL GWF_1            PACKAGE GWF_1           CONNECTED TO MODEL GWF_1            PACKAGE RIV_SYS1         ON UNIT   1019 AT TIME STEP      1, STRESS PERIOD    105
 UBDSV06 SAVING              RIV IN MODEL GWF_1            PACKAGE GWF_1           CONNECTED TO MODEL GWF_1            PACKAGE RIV_SYS2         ON UNIT   1019 AT TIME STEP      1, STRESS PERIOD    105

 HEAD WILL BE SAVED ON UNIT 1018 AT END OF TIME STEP    1, STRESS PERIOD  105


  VOLUME BUDGET FOR ENTIRE MODEL AT END OF TIME STEP    1, STRESS PERIOD 105
  ---------------------------------------------------------------------------------------------------

     CUMULATIVE VOLUME      L**3       RATES FOR THIS TIME STEP      L**3/T          PACKAGE NAME    
     ------------------                 ------------------------                     ----------------

           IN:                                      IN:
           ---                                      ---
              STO-SS =      102483.3878                STO-SS =        1317.4331     STORAGE                          
                 WEL =       74309.3853                   WEL =         583.3773     RIV_CORR                         
                 DRN =           0.0000                   DRN =           0.0000     DRN_SYS1                         
                 RIV =       66966.2494                   RIV =         516.9971     RIV_SYS1                         
                 RIV =           0.0000                   RIV =           0.0000     RIV_SYS2                         
                 RCH =      210516.3941                   RCH =         667.2472     RCH_MSW                          

            TOTAL IN =      454275.4167              TOTAL IN =        3085.0548

          OUT:                                     OUT:
          ----                                     ----
              STO-SS =       77834.0320                STO-SS =          95.1654     STORAGE                          
                 WEL =      129364.7627                   WEL =         956.2815     RIV_CORR                         
                 DRN =       28447.0400                   DRN =         273.5308     DRN_SYS1                         
                 RIV =      119330.4583                   RIV =         979.3392     RIV_SYS1                         
                 RIV =       76755.3604                   RIV =         733.6434     RIV_SYS2                         
                 RCH =       22544.8024                   RCH =          47.0961     RCH_MSW                          

           TOTAL OUT =      454276.4558             TOTAL OUT =        3085.0564

            IN - OUT =          -1.0392              IN - OUT =      -1.6101E-03

 PERCENT DISCREPANCY =          -0.00     PERCENT DISCREPANCY =          -0.00




         TIME SUMMARY AT END OF TIME STEP    1 IN STRESS PERIOD  105
                    SECONDS     MINUTES      HOURS       DAYS        YEARS
                    -----------------------------------------------------------
   TIME STEP LENGTH  86400.      1440.0      24.000      1.0000     2.73785E-03
 STRESS PERIOD TIME  86400.      1440.0      24.000      1.0000     2.73785E-03
         TOTAL TIME 9.07200E+06 1.51200E+05  2520.0      105.00     0.28747    


end timestep


start timestep kper="106" kstp="1" mode="normal"

 #Stressperiod Save Options

 BEGIN READING OUTPUT CONTROL FOR STRESS PERIOD 106
      ALL TIME STEPS WILL BE SAVED
      ALL TIME STEPS WILL BE SAVED

 END READING OUTPUT CONTROL FOR STRESS PERIOD 106


 PROCESSING STORAGE PERIOD DATA
 END PROCESSING STORAGE PERIOD DATA


 STRESS PERIOD 106 IS TRANSIENT


 REUSING WELS FROM LAST STRESS PERIOD

 REUSING DRNS FROM LAST STRESS PERIOD

 REUSING RIVS FROM LAST STRESS PERIOD

 REUSING RIVS FROM LAST STRESS PERIOD

 REUSING RCHS FROM LAST STRESS PERIOD
 UBDSV06 SAVING              DRN IN MODEL GWF_1            PACKAGE GWF_1           CONNECTED TO MODEL GWF_1            PACKAGE DRN_SYS1         ON UNIT   1019 AT TIME STEP      1, STRESS PERIOD    106
 UBDSV06 SAVING              RIV IN MODEL GWF_1            PACKAGE GWF_1           CONNECTED TO MODEL GWF_1            PACKAGE RIV_SYS1         ON UNIT   1019 AT TIME STEP      1, STRESS PERIOD    106
 UBDSV06 SAVING              RIV IN MODEL GWF_1            PACKAGE GWF_1           CONNECTED TO MODEL GWF_1            PACKAGE RIV_SYS2         ON UNIT   1019 AT TIME STEP      1, STRESS PERIOD    106

 HEAD WILL BE SAVED ON UNIT 1018 AT END OF TIME STEP    1, STRESS PERIOD  106


  VOLUME BUDGET FOR ENTIRE MODEL AT END OF TIME STEP    1, STRESS PERIOD 106
  ---------------------------------------------------------------------------------------------------

     CUMULATIVE VOLUME      L**3       RATES FOR THIS TIME STEP      L**3/T          PACKAGE NAME    
     ------------------                 ------------------------                     ----------------

           IN:                                      IN:
           ---                                      ---
              STO-SS =      104259.5782                STO-SS =        1776.1904     STORAGE                          
                 WEL =       74826.3825                   WEL =         516.9971     RIV_CORR                         
                 DRN =           0.0000                   DRN =           0.0000     DRN_SYS1                         
                 RIV =       67801.4148                   RIV =         835.1654     RIV_SYS1                         
                 RIV =           0.0000                   RIV =           0.0000     RIV_SYS2                         
                 RCH =      210782.3573                   RCH =         265.9632     RCH_MSW                          

            TOTAL IN =      457669.7328              TOTAL IN =        3394.3161

          OUT:                                     OUT:
          ----                                     ----
              STO-SS =       77834.0320                STO-SS =           0.0000     STORAGE                          
                 WEL =      130344.1020                   WEL =         979.3392     RIV_CORR                         
                 DRN =       28717.7641                   DRN =         270.7242     DRN_SYS1                         
                 RIV =      120232.4829                   RIV =         902.0245     RIV_SYS1                         
                 RIV =       77481.7226                   RIV =         726.3622     RIV_SYS2                         
                 RCH =       23060.7608                   RCH =         515.9584     RCH_MSW                          

           TOTAL OUT =      457670.8644             TOTAL OUT =        3394.4086

            IN - OUT =          -1.1317              IN - OUT =      -9.2483E-02

 PERCENT DISCREPANCY =          -0.00     PERCENT DISCREPANCY =          -0.00




         TIME SUMMARY AT END OF TIME STEP    1 IN STRESS PERIOD  106
                    SECONDS     MINUTES      HOURS       DAYS        YEARS
                    -----------------------------------------------------------
   TIME STEP LENGTH  86400.      1440.0      24.000      1.0000     2.73785E-03
 STRESS PERIOD TIME  86400.      1440.0      24.000      1.0000     2.73785E-03
         TOTAL TIME 9.15840E+06 1.52640E+05  2544.0      106.00     0.29021    


end timestep


start timestep kper="107" kstp="1" mode="normal"

 #Stressperiod Save Options

 BEGIN READING OUTPUT CONTROL FOR STRESS PERIOD 107
      ALL TIME STEPS WILL BE SAVED
      ALL TIME STEPS WILL BE SAVED

 END READING OUTPUT CONTROL FOR STRESS PERIOD 107


 PROCESSING STORAGE PERIOD DATA
 END PROCESSING STORAGE PERIOD DATA


 STRESS PERIOD 107 IS TRANSIENT


 REUSING WELS FROM LAST STRESS PERIOD

 REUSING DRNS FROM LAST STRESS PERIOD

 REUSING RIVS FROM LAST STRESS PERIOD

 REUSING RIVS FROM LAST STRESS PERIOD

 REUSING RCHS FROM LAST STRESS PERIOD
 UBDSV06 SAVING              DRN IN MODEL GWF_1            PACKAGE GWF_1           CONNECTED TO MODEL GWF_1            PACKAGE DRN_SYS1         ON UNIT   1019 AT TIME STEP      1, STRESS PERIOD    107
 UBDSV06 SAVING              RIV IN MODEL GWF_1            PACKAGE GWF_1           CONNECTED TO MODEL GWF_1            PACKAGE RIV_SYS1         ON UNIT   1019 AT TIME STEP      1, STRESS PERIOD    107
 UBDSV06 SAVING              RIV IN MODEL GWF_1            PACKAGE GWF_1           CONNECTED TO MODEL GWF_1            PACKAGE RIV_SYS2         ON UNIT   1019 AT TIME STEP      1, STRESS PERIOD    107

 HEAD WILL BE SAVED ON UNIT 1018 AT END OF TIME STEP    1, STRESS PERIOD  107


  VOLUME BUDGET FOR ENTIRE MODEL AT END OF TIME STEP    1, STRESS PERIOD 107
  ---------------------------------------------------------------------------------------------------

     CUMULATIVE VOLUME      L**3       RATES FOR THIS TIME STEP      L**3/T          PACKAGE NAME    
     ------------------                 ------------------------                     ----------------

           IN:                                      IN:
           ---                                      ---
              STO-SS =      105760.5927                STO-SS =        1501.0145     STORAGE                          
                 WEL =       75661.5478                   WEL =         835.1654     RIV_CORR                         
                 DRN =           0.0000                   DRN =           0.0000     DRN_SYS1                         
                 RIV =       68516.9671                   RIV =         715.5523     RIV_SYS1                         
                 RIV =           0.0000                   RIV =           0.0000     RIV_SYS2                         
                 RCH =      210996.1763                   RCH =         213.8190     RCH_MSW                          

            TOTAL IN =      460935.2840              TOTAL IN =        3265.5512

          OUT:                                     OUT:
          ----                                     ----
              STO-SS =       77865.9613                STO-SS =          31.9293     STORAGE                          
                 WEL =      131246.1265                   WEL =         902.0245     RIV_CORR                         
                 DRN =       28985.7417                   DRN =         267.9775     DRN_SYS1                         
                 RIV =      121114.6631                   RIV =         882.1803     RIV_SYS1                         
                 RIV =       78201.0383                   RIV =         719.3157     RIV_SYS2                         
                 RCH =       23522.8917                   RCH =         462.1309     RCH_MSW                          

           TOTAL OUT =      460936.4226             TOTAL OUT =        3265.5582

            IN - OUT =          -1.1386              IN - OUT =      -6.9660E-03

 PERCENT DISCREPANCY =          -0.00     PERCENT DISCREPANCY =          -0.00




         TIME SUMMARY AT END OF TIME STEP    1 IN STRESS PERIOD  107
                    SECONDS     MINUTES      HOURS       DAYS        YEARS
                    -----------------------------------------------------------
   TIME STEP LENGTH  86400.      1440.0      24.000      1.0000     2.73785E-03
 STRESS PERIOD TIME  86400.      1440.0      24.000      1.0000     2.73785E-03
         TOTAL TIME 9.24480E+06 1.54080E+05  2568.0      107.00     0.29295    


end timestep


start timestep kper="108" kstp="1" mode="normal"

 #Stressperiod Save Options

 BEGIN READING OUTPUT CONTROL FOR STRESS PERIOD 108
      ALL TIME STEPS WILL BE SAVED
      ALL TIME STEPS WILL BE SAVED

 END READING OUTPUT CONTROL FOR STRESS PERIOD 108


 PROCESSING STORAGE PERIOD DATA
 END PROCESSING STORAGE PERIOD DATA


 STRESS PERIOD 108 IS TRANSIENT


 REUSING WELS FROM LAST STRESS PERIOD

 REUSING DRNS FROM LAST STRESS PERIOD

 REUSING RIVS FROM LAST STRESS PERIOD

 REUSING RIVS FROM LAST STRESS PERIOD

 REUSING RCHS FROM LAST STRESS PERIOD
 UBDSV06 SAVING              DRN IN MODEL GWF_1            PACKAGE GWF_1           CONNECTED TO MODEL GWF_1            PACKAGE DRN_SYS1         ON UNIT   1019 AT TIME STEP      1, STRESS PERIOD    108
 UBDSV06 SAVING              RIV IN MODEL GWF_1            PACKAGE GWF_1           CONNECTED TO MODEL GWF_1            PACKAGE RIV_SYS1         ON UNIT   1019 AT TIME STEP      1, STRESS PERIOD    108
 UBDSV06 SAVING              RIV IN MODEL GWF_1            PACKAGE GWF_1           CONNECTED TO MODEL GWF_1            PACKAGE RIV_SYS2         ON UNIT   1019 AT TIME STEP      1, STRESS PERIOD    108

 HEAD WILL BE SAVED ON UNIT 1018 AT END OF TIME STEP    1, STRESS PERIOD  108


  VOLUME BUDGET FOR ENTIRE MODEL AT END OF TIME STEP    1, STRESS PERIOD 108
  ---------------------------------------------------------------------------------------------------

     CUMULATIVE VOLUME      L**3       RATES FOR THIS TIME STEP      L**3/T          PACKAGE NAME    
     ------------------                 ------------------------                     ----------------

           IN:                                      IN:
           ---                                      ---
              STO-SS =      107356.0910                STO-SS =        1595.4983     STORAGE                          
                 WEL =       76377.1002                   WEL =         715.5523     RIV_CORR                         
                 DRN =           0.0000                   DRN =           0.0000     DRN_SYS1                         
                 RIV =       69379.7970                   RIV =         862.8299     RIV_SYS1                         
                 RIV =           0.0000                   RIV =           0.0000     RIV_SYS2                         
                 RCH =      211167.7010                   RCH =         171.5247     RCH_MSW                          

            TOTAL IN =      464280.6892              TOTAL IN =        3345.4052

          OUT:                                     OUT:
          ----                                     ----
              STO-SS =       77865.9613                STO-SS =           0.0000     STORAGE                          
                 WEL =      132128.3068                   WEL =         882.1803     RIV_CORR                         
                 DRN =       29251.0072                   DRN =         265.2656     DRN_SYS1                         
                 RIV =      121976.2507                   RIV =         861.5876     RIV_SYS1                         
                 RIV =       78913.4415                   RIV =         712.4032     RIV_SYS2                         
                 RCH =       24146.8483                   RCH =         623.9566     RCH_MSW                          

           TOTAL OUT =      464281.8159             TOTAL OUT =        3345.3933

            IN - OUT =          -1.1267              IN - OUT =       1.1897E-02

 PERCENT DISCREPANCY =          -0.00     PERCENT DISCREPANCY =           0.00




         TIME SUMMARY AT END OF TIME STEP    1 IN STRESS PERIOD  108
                    SECONDS     MINUTES      HOURS       DAYS        YEARS
                    -----------------------------------------------------------
   TIME STEP LENGTH  86400.      1440.0      24.000      1.0000     2.73785E-03
 STRESS PERIOD TIME  86400.      1440.0      24.000      1.0000     2.73785E-03
         TOTAL TIME 9.33120E+06 1.55520E+05  2592.0      108.00     0.29569    


end timestep


start timestep kper="109" kstp="1" mode="normal"

 #Stressperiod Save Options

 BEGIN READING OUTPUT CONTROL FOR STRESS PERIOD 109
      ALL TIME STEPS WILL BE SAVED
      ALL TIME STEPS WILL BE SAVED

 END READING OUTPUT CONTROL FOR STRESS PERIOD 109


 PROCESSING STORAGE PERIOD DATA
 END PROCESSING STORAGE PERIOD DATA


 STRESS PERIOD 109 IS TRANSIENT


 REUSING WELS FROM LAST STRESS PERIOD

 REUSING DRNS FROM LAST STRESS PERIOD

 REUSING RIVS FROM LAST STRESS PERIOD

 REUSING RIVS FROM LAST STRESS PERIOD

 REUSING RCHS FROM LAST STRESS PERIOD
 UBDSV06 SAVING              DRN IN MODEL GWF_1            PACKAGE GWF_1           CONNECTED TO MODEL GWF_1            PACKAGE DRN_SYS1         ON UNIT   1019 AT TIME STEP      1, STRESS PERIOD    109
 UBDSV06 SAVING              RIV IN MODEL GWF_1            PACKAGE GWF_1           CONNECTED TO MODEL GWF_1            PACKAGE RIV_SYS1         ON UNIT   1019 AT TIME STEP      1, STRESS PERIOD    109
 UBDSV06 SAVING              RIV IN MODEL GWF_1            PACKAGE GWF_1           CONNECTED TO MODEL GWF_1            PACKAGE RIV_SYS2         ON UNIT   1019 AT TIME STEP      1, STRESS PERIOD    109

 HEAD WILL BE SAVED ON UNIT 1018 AT END OF TIME STEP    1, STRESS PERIOD  109


  VOLUME BUDGET FOR ENTIRE MODEL AT END OF TIME STEP    1, STRESS PERIOD 109
  ---------------------------------------------------------------------------------------------------

     CUMULATIVE VOLUME      L**3       RATES FOR THIS TIME STEP      L**3/T          PACKAGE NAME    
     ------------------                 ------------------------                     ----------------

           IN:                                      IN:
           ---                                      ---
              STO-SS =      108776.0744                STO-SS =        1419.9834     STORAGE                          
                 WEL =       77239.9301                   WEL =         862.8299     RIV_CORR                         
                 DRN =           0.0000                   DRN =           0.0000     DRN_SYS1                         
                 RIV =       70192.1721                   RIV =         812.3751     RIV_SYS1                         
                 RIV =           0.0000                   RIV =           0.0000     RIV_SYS2                         
                 RCH =      211307.4817                   RCH =         139.7807     RCH_MSW                          

            TOTAL IN =      467515.6583              TOTAL IN =        3234.9691

          OUT:                                     OUT:
          ----                                     ----
              STO-SS =       77880.9395                STO-SS =          14.9782     STORAGE                          
                 WEL =      132989.8944                   WEL =         861.5876     RIV_CORR                         
                 DRN =       29513.7000                   DRN =         262.6928     DRN_SYS1                         
                 RIV =      122822.5790                   RIV =         846.3283     RIV_SYS1                         
                 RIV =       79619.2743                   RIV =         705.8328     RIV_SYS2                         
                 RCH =       24690.4461                   RCH =         543.5977     RCH_MSW                          

           TOTAL OUT =      467516.8333             TOTAL OUT =        3235.0174

            IN - OUT =          -1.1750              IN - OUT =      -4.8292E-02

 PERCENT DISCREPANCY =          -0.00     PERCENT DISCREPANCY =          -0.00




         TIME SUMMARY AT END OF TIME STEP    1 IN STRESS PERIOD  109
                    SECONDS     MINUTES      HOURS       DAYS        YEARS
                    -----------------------------------------------------------
   TIME STEP LENGTH  86400.      1440.0      24.000      1.0000     2.73785E-03
 STRESS PERIOD TIME  86400.      1440.0      24.000      1.0000     2.73785E-03
         TOTAL TIME 9.41760E+06 1.56960E+05  2616.0      109.00     0.29843    


end timestep


start timestep kper="110" kstp="1" mode="normal"

 #Stressperiod Save Options

 BEGIN READING OUTPUT CONTROL FOR STRESS PERIOD 110
      ALL TIME STEPS WILL BE SAVED
      ALL TIME STEPS WILL BE SAVED

 END READING OUTPUT CONTROL FOR STRESS PERIOD 110


 PROCESSING STORAGE PERIOD DATA
 END PROCESSING STORAGE PERIOD DATA


 STRESS PERIOD 110 IS TRANSIENT


 REUSING WELS FROM LAST STRESS PERIOD

 REUSING DRNS FROM LAST STRESS PERIOD

 REUSING RIVS FROM LAST STRESS PERIOD

 REUSING RIVS FROM LAST STRESS PERIOD

 REUSING RCHS FROM LAST STRESS PERIOD
 UBDSV06 SAVING              DRN IN MODEL GWF_1            PACKAGE GWF_1           CONNECTED TO MODEL GWF_1            PACKAGE DRN_SYS1         ON UNIT   1019 AT TIME STEP      1, STRESS PERIOD    110
 UBDSV06 SAVING              RIV IN MODEL GWF_1            PACKAGE GWF_1           CONNECTED TO MODEL GWF_1            PACKAGE RIV_SYS1         ON UNIT   1019 AT TIME STEP      1, STRESS PERIOD    110
 UBDSV06 SAVING              RIV IN MODEL GWF_1            PACKAGE GWF_1           CONNECTED TO MODEL GWF_1            PACKAGE RIV_SYS2         ON UNIT   1019 AT TIME STEP      1, STRESS PERIOD    110

 HEAD WILL BE SAVED ON UNIT 1018 AT END OF TIME STEP    1, STRESS PERIOD  110


  VOLUME BUDGET FOR ENTIRE MODEL AT END OF TIME STEP    1, STRESS PERIOD 110
  ---------------------------------------------------------------------------------------------------

     CUMULATIVE VOLUME      L**3       RATES FOR THIS TIME STEP      L**3/T          PACKAGE NAME    
     ------------------                 ------------------------                     ----------------

           IN:                                      IN:
           ---                                      ---
              STO-SS =      110193.6785                STO-SS =        1417.6041     STORAGE                          
                 WEL =       78052.3052                   WEL =         812.3751     RIV_CORR                         
                 DRN =           0.0000                   DRN =           0.0000     DRN_SYS1                         
                 RIV =       71086.2149                   RIV =         894.0428     RIV_SYS1                         
                 RIV =           0.0000                   RIV =           0.0000     RIV_SYS2                         
                 RCH =      211421.3163                   RCH =         113.8346     RCH_MSW                          

            TOTAL IN =      470753.5149              TOTAL IN =        3237.8566

          OUT:                                     OUT:
          ----                                     ----
              STO-SS =       77880.9395                STO-SS =           0.0000     STORAGE                          
                 WEL =      133836.2227                   WEL =         846.3283     RIV_CORR                         
                 DRN =       29773.9462                   DRN =         260.2462     DRN_SYS1                         
                 RIV =      123654.1323                   RIV =         831.5532     RIV_SYS1                         
                 RIV =       80318.8625                   RIV =         699.5882     RIV_SYS2                         
                 RCH =       25290.5473                   RCH =         600.1012     RCH_MSW                          

           TOTAL OUT =      470754.6505             TOTAL OUT =        3237.8172

            IN - OUT =          -1.1356              IN - OUT =       3.9426E-02

 PERCENT DISCREPANCY =          -0.00     PERCENT DISCREPANCY =           0.00




         TIME SUMMARY AT END OF TIME STEP    1 IN STRESS PERIOD  110
                    SECONDS     MINUTES      HOURS       DAYS        YEARS
                    -----------------------------------------------------------
   TIME STEP LENGTH  86400.      1440.0      24.000      1.0000     2.73785E-03
 STRESS PERIOD TIME  86400.      1440.0      24.000      1.0000     2.73785E-03
         TOTAL TIME 9.50400E+06 1.58400E+05  2640.0      110.00     0.30116    


end timestep


start timestep kper="111" kstp="1" mode="normal"

 #Stressperiod Save Options

 BEGIN READING OUTPUT CONTROL FOR STRESS PERIOD 111
      ALL TIME STEPS WILL BE SAVED
      ALL TIME STEPS WILL BE SAVED

 END READING OUTPUT CONTROL FOR STRESS PERIOD 111


 PROCESSING STORAGE PERIOD DATA
 END PROCESSING STORAGE PERIOD DATA


 STRESS PERIOD 111 IS TRANSIENT


 REUSING WELS FROM LAST STRESS PERIOD

 REUSING DRNS FROM LAST STRESS PERIOD

 REUSING RIVS FROM LAST STRESS PERIOD

 REUSING RIVS FROM LAST STRESS PERIOD

 REUSING RCHS FROM LAST STRESS PERIOD
 UBDSV06 SAVING              DRN IN MODEL GWF_1            PACKAGE GWF_1           CONNECTED TO MODEL GWF_1            PACKAGE DRN_SYS1         ON UNIT   1019 AT TIME STEP      1, STRESS PERIOD    111
 UBDSV06 SAVING              RIV IN MODEL GWF_1            PACKAGE GWF_1           CONNECTED TO MODEL GWF_1            PACKAGE RIV_SYS1         ON UNIT   1019 AT TIME STEP      1, STRESS PERIOD    111
 UBDSV06 SAVING              RIV IN MODEL GWF_1            PACKAGE GWF_1           CONNECTED TO MODEL GWF_1            PACKAGE RIV_SYS2         ON UNIT   1019 AT TIME STEP      1, STRESS PERIOD    111

 HEAD WILL BE SAVED ON UNIT 1018 AT END OF TIME STEP    1, STRESS PERIOD  111


  VOLUME BUDGET FOR ENTIRE MODEL AT END OF TIME STEP    1, STRESS PERIOD 111
  ---------------------------------------------------------------------------------------------------

     CUMULATIVE VOLUME      L**3       RATES FOR THIS TIME STEP      L**3/T          PACKAGE NAME    
     ------------------                 ------------------------                     ----------------

           IN:                                      IN:
           ---                                      ---
              STO-SS =      111496.2836                STO-SS =        1302.6051     STORAGE                          
                 WEL =       78946.3480                   WEL =         894.0428     RIV_CORR                         
                 DRN =           0.0000                   DRN =           0.0000     DRN_SYS1                         
                 RIV =       71971.2188                   RIV =         885.0039     RIV_SYS1                         
                 RIV =           0.0000                   RIV =           0.0000     RIV_SYS2                         
                 RCH =      211514.4443                   RCH =          93.1280     RCH_MSW                          

            TOTAL IN =      473928.2947              TOTAL IN =        3174.7798

          OUT:                                     OUT:
          ----                                     ----
              STO-SS =       77886.5277                STO-SS =           5.5882     STORAGE                          
                 WEL =      134667.7759                   WEL =         831.5532     RIV_CORR                         
                 DRN =       30031.8898                   DRN =         257.9436     DRN_SYS1                         
                 RIV =      124474.8013                   RIV =         820.6691     RIV_SYS1                         
                 RIV =       81012.5929                   RIV =         693.7304     RIV_SYS2                         
                 RCH =       25855.8666                   RCH =         565.3193     RCH_MSW                          

           TOTAL OUT =      473929.4542             TOTAL OUT =        3174.8038

            IN - OUT =          -1.1595              IN - OUT =      -2.3923E-02

 PERCENT DISCREPANCY =          -0.00     PERCENT DISCREPANCY =          -0.00




         TIME SUMMARY AT END OF TIME STEP    1 IN STRESS PERIOD  111
                    SECONDS     MINUTES      HOURS       DAYS        YEARS
                    -----------------------------------------------------------
   TIME STEP LENGTH  86400.      1440.0      24.000      1.0000     2.73785E-03
 STRESS PERIOD TIME  86400.      1440.0      24.000      1.0000     2.73785E-03
         TOTAL TIME 9.59040E+06 1.59840E+05  2664.0      111.00     0.30390    


end timestep


start timestep kper="112" kstp="1" mode="normal"

 #Stressperiod Save Options

 BEGIN READING OUTPUT CONTROL FOR STRESS PERIOD 112
      ALL TIME STEPS WILL BE SAVED
      ALL TIME STEPS WILL BE SAVED

 END READING OUTPUT CONTROL FOR STRESS PERIOD 112


 PROCESSING STORAGE PERIOD DATA
 END PROCESSING STORAGE PERIOD DATA


 STRESS PERIOD 112 IS TRANSIENT


 REUSING WELS FROM LAST STRESS PERIOD

 REUSING DRNS FROM LAST STRESS PERIOD

 REUSING RIVS FROM LAST STRESS PERIOD

 REUSING RIVS FROM LAST STRESS PERIOD

 REUSING RCHS FROM LAST STRESS PERIOD
 UBDSV06 SAVING              DRN IN MODEL GWF_1            PACKAGE GWF_1           CONNECTED TO MODEL GWF_1            PACKAGE DRN_SYS1         ON UNIT   1019 AT TIME STEP      1, STRESS PERIOD    112
 UBDSV06 SAVING              RIV IN MODEL GWF_1            PACKAGE GWF_1           CONNECTED TO MODEL GWF_1            PACKAGE RIV_SYS1         ON UNIT   1019 AT TIME STEP      1, STRESS PERIOD    112
 UBDSV06 SAVING              RIV IN MODEL GWF_1            PACKAGE GWF_1           CONNECTED TO MODEL GWF_1            PACKAGE RIV_SYS2         ON UNIT   1019 AT TIME STEP      1, STRESS PERIOD    112

 HEAD WILL BE SAVED ON UNIT 1018 AT END OF TIME STEP    1, STRESS PERIOD  112


  VOLUME BUDGET FOR ENTIRE MODEL AT END OF TIME STEP    1, STRESS PERIOD 112
  ---------------------------------------------------------------------------------------------------

     CUMULATIVE VOLUME      L**3       RATES FOR THIS TIME STEP      L**3/T          PACKAGE NAME    
     ------------------                 ------------------------                     ----------------

           IN:                                      IN:
           ---                                      ---
              STO-SS =      112842.7029                STO-SS =        1346.4193     STORAGE                          
                 WEL =       79831.3519                   WEL =         885.0039     RIV_CORR                         
                 DRN =           0.0000                   DRN =           0.0000     DRN_SYS1                         
                 RIV =       72955.2874                   RIV =         984.0686     RIV_SYS1                         
                 RIV =           0.0000                   RIV =           0.0000     RIV_SYS2                         
                 RCH =      211590.6259                   RCH =          76.1815     RCH_MSW                          

            TOTAL IN =      477219.9681              TOTAL IN =        3291.6734

          OUT:                                     OUT:
          ----                                     ----
              STO-SS =       77886.5277                STO-SS =           0.0000     STORAGE                          
                 WEL =      135488.4450                   WEL =         820.6691     RIV_CORR                         
                 DRN =       30287.6321                   DRN =         255.7422     DRN_SYS1                         
                 RIV =      125283.7854                   RIV =         808.9841     RIV_SYS1                         
                 RIV =       81700.7334                   RIV =         688.1405     RIV_SYS2                         
                 RCH =       26574.0057                   RCH =         718.1391     RCH_MSW                          

           TOTAL OUT =      477221.1292             TOTAL OUT =        3291.6750

            IN - OUT =          -1.1611              IN - OUT =      -1.6237E-03

 PERCENT DISCREPANCY =          -0.00     PERCENT DISCREPANCY =          -0.00




         TIME SUMMARY AT END OF TIME STEP    1 IN STRESS PERIOD  112
                    SECONDS     MINUTES      HOURS       DAYS        YEARS
                    -----------------------------------------------------------
   TIME STEP LENGTH  86400.      1440.0      24.000      1.0000     2.73785E-03
 STRESS PERIOD TIME  86400.      1440.0      24.000      1.0000     2.73785E-03
         TOTAL TIME 9.67680E+06 1.61280E+05  2688.0      112.00     0.30664    


end timestep


start timestep kper="113" kstp="1" mode="normal"

 #Stressperiod Save Options

 BEGIN READING OUTPUT CONTROL FOR STRESS PERIOD 113
      ALL TIME STEPS WILL BE SAVED
      ALL TIME STEPS WILL BE SAVED

 END READING OUTPUT CONTROL FOR STRESS PERIOD 113


 PROCESSING STORAGE PERIOD DATA
 END PROCESSING STORAGE PERIOD DATA


 STRESS PERIOD 113 IS TRANSIENT


 REUSING WELS FROM LAST STRESS PERIOD

 REUSING DRNS FROM LAST STRESS PERIOD

 REUSING RIVS FROM LAST STRESS PERIOD

 REUSING RIVS FROM LAST STRESS PERIOD

 REUSING RCHS FROM LAST STRESS PERIOD
 UBDSV06 SAVING              DRN IN MODEL GWF_1            PACKAGE GWF_1           CONNECTED TO MODEL GWF_1            PACKAGE DRN_SYS1         ON UNIT   1019 AT TIME STEP      1, STRESS PERIOD    113
 UBDSV06 SAVING              RIV IN MODEL GWF_1            PACKAGE GWF_1           CONNECTED TO MODEL GWF_1            PACKAGE RIV_SYS1         ON UNIT   1019 AT TIME STEP      1, STRESS PERIOD    113
 UBDSV06 SAVING              RIV IN MODEL GWF_1            PACKAGE GWF_1           CONNECTED TO MODEL GWF_1            PACKAGE RIV_SYS2         ON UNIT   1019 AT TIME STEP      1, STRESS PERIOD    113

 HEAD WILL BE SAVED ON UNIT 1018 AT END OF TIME STEP    1, STRESS PERIOD  113


  VOLUME BUDGET FOR ENTIRE MODEL AT END OF TIME STEP    1, STRESS PERIOD 113
  ---------------------------------------------------------------------------------------------------

     CUMULATIVE VOLUME      L**3       RATES FOR THIS TIME STEP      L**3/T          PACKAGE NAME    
     ------------------                 ------------------------                     ----------------

           IN:                                      IN:
           ---                                      ---
              STO-SS =      114157.6357                STO-SS =        1314.9328     STORAGE                          
                 WEL =       80815.4205                   WEL =         984.0686     RIV_CORR                         
                 DRN =           0.0000                   DRN =           0.0000     DRN_SYS1                         
                 RIV =       73984.0089                   RIV =        1028.7215     RIV_SYS1                         
                 RIV =           0.0000                   RIV =           0.0000     RIV_SYS2                         
                 RCH =      211651.9933                   RCH =          61.3675     RCH_MSW                          

            TOTAL IN =      480609.0584              TOTAL IN =        3389.0903

          OUT:                                     OUT:
          ----                                     ----
              STO-SS =       77886.6666                STO-SS =           0.1389     STORAGE                          
                 WEL =      136297.4290                   WEL =         808.9841     RIV_CORR                         
                 DRN =       30541.2609                   DRN =         253.6289     DRN_SYS1                         
                 RIV =      126081.7212                   RIV =         797.9359     RIV_SYS1                         
                 RIV =       82383.4929                   RIV =         682.7595     RIV_SYS2                         
                 RCH =       27419.7282                   RCH =         845.7225     RCH_MSW                          

           TOTAL OUT =      480610.2989             TOTAL OUT =        3389.1696

            IN - OUT =          -1.2404              IN - OUT =      -7.9297E-02

 PERCENT DISCREPANCY =          -0.00     PERCENT DISCREPANCY =          -0.00




         TIME SUMMARY AT END OF TIME STEP    1 IN STRESS PERIOD  113
                    SECONDS     MINUTES      HOURS       DAYS        YEARS
                    -----------------------------------------------------------
   TIME STEP LENGTH  86400.      1440.0      24.000      1.0000     2.73785E-03
 STRESS PERIOD TIME  86400.      1440.0      24.000      1.0000     2.73785E-03
         TOTAL TIME 9.76320E+06 1.62720E+05  2712.0      113.00     0.30938    


end timestep


start timestep kper="114" kstp="1" mode="normal"

 #Stressperiod Save Options

 BEGIN READING OUTPUT CONTROL FOR STRESS PERIOD 114
      ALL TIME STEPS WILL BE SAVED
      ALL TIME STEPS WILL BE SAVED

 END READING OUTPUT CONTROL FOR STRESS PERIOD 114


 PROCESSING STORAGE PERIOD DATA
 END PROCESSING STORAGE PERIOD DATA


 STRESS PERIOD 114 IS TRANSIENT


 REUSING WELS FROM LAST STRESS PERIOD

 REUSING DRNS FROM LAST STRESS PERIOD

 REUSING RIVS FROM LAST STRESS PERIOD

 REUSING RIVS FROM LAST STRESS PERIOD

 REUSING RCHS FROM LAST STRESS PERIOD
 UBDSV06 SAVING              DRN IN MODEL GWF_1            PACKAGE GWF_1           CONNECTED TO MODEL GWF_1            PACKAGE DRN_SYS1         ON UNIT   1019 AT TIME STEP      1, STRESS PERIOD    114
 UBDSV06 SAVING              RIV IN MODEL GWF_1            PACKAGE GWF_1           CONNECTED TO MODEL GWF_1            PACKAGE RIV_SYS1         ON UNIT   1019 AT TIME STEP      1, STRESS PERIOD    114
 UBDSV06 SAVING              RIV IN MODEL GWF_1            PACKAGE GWF_1           CONNECTED TO MODEL GWF_1            PACKAGE RIV_SYS2         ON UNIT   1019 AT TIME STEP      1, STRESS PERIOD    114

 HEAD WILL BE SAVED ON UNIT 1018 AT END OF TIME STEP    1, STRESS PERIOD  114


  VOLUME BUDGET FOR ENTIRE MODEL AT END OF TIME STEP    1, STRESS PERIOD 114
  ---------------------------------------------------------------------------------------------------

     CUMULATIVE VOLUME      L**3       RATES FOR THIS TIME STEP      L**3/T          PACKAGE NAME    
     ------------------                 ------------------------                     ----------------

           IN:                                      IN:
           ---                                      ---
              STO-SS =      115301.2327                STO-SS =        1143.5970     STORAGE                          
                 WEL =       81844.1419                   WEL =        1028.7215     RIV_CORR                         
                 DRN =           0.0000                   DRN =           0.0000     DRN_SYS1                         
                 RIV =       74947.2365                   RIV =         963.2276     RIV_SYS1                         
                 RIV =           0.0000                   RIV =           0.0000     RIV_SYS2                         
                 RCH =      211715.3518                   RCH =          63.3584     RCH_MSW                          

            TOTAL IN =      483807.9629              TOTAL IN =        3198.9045

          OUT:                                     OUT:
          ----                                     ----
              STO-SS =       77912.7112                STO-SS =          26.0446     STORAGE                          
                 WEL =      137095.3649                   WEL =         797.9359     RIV_CORR                         
                 DRN =       30792.9073                   DRN =         251.6464     DRN_SYS1                         
                 RIV =      126870.7919                   RIV =         789.0706     RIV_SYS1                         
                 RIV =       83061.2893                   RIV =         677.7964     RIV_SYS2                         
                 RCH =       28076.1409                   RCH =         656.4127     RCH_MSW                          

           TOTAL OUT =      483809.2055             TOTAL OUT =        3198.9066

            IN - OUT =          -1.2426              IN - OUT =      -2.1520E-03

 PERCENT DISCREPANCY =          -0.00     PERCENT DISCREPANCY =          -0.00




         TIME SUMMARY AT END OF TIME STEP    1 IN STRESS PERIOD  114
                    SECONDS     MINUTES      HOURS       DAYS        YEARS
                    -----------------------------------------------------------
   TIME STEP LENGTH  86400.      1440.0      24.000      1.0000     2.73785E-03
 STRESS PERIOD TIME  86400.      1440.0      24.000      1.0000     2.73785E-03
         TOTAL TIME 9.84960E+06 1.64160E+05  2736.0      114.00     0.31211    


end timestep


start timestep kper="115" kstp="1" mode="normal"

 #Stressperiod Save Options

 BEGIN READING OUTPUT CONTROL FOR STRESS PERIOD 115
      ALL TIME STEPS WILL BE SAVED
      ALL TIME STEPS WILL BE SAVED

 END READING OUTPUT CONTROL FOR STRESS PERIOD 115


 PROCESSING STORAGE PERIOD DATA
 END PROCESSING STORAGE PERIOD DATA


 STRESS PERIOD 115 IS TRANSIENT


 REUSING WELS FROM LAST STRESS PERIOD

 REUSING DRNS FROM LAST STRESS PERIOD

 REUSING RIVS FROM LAST STRESS PERIOD

 REUSING RIVS FROM LAST STRESS PERIOD

 REUSING RCHS FROM LAST STRESS PERIOD
 UBDSV06 SAVING              DRN IN MODEL GWF_1            PACKAGE GWF_1           CONNECTED TO MODEL GWF_1            PACKAGE DRN_SYS1         ON UNIT   1019 AT TIME STEP      1, STRESS PERIOD    115
 UBDSV06 SAVING              RIV IN MODEL GWF_1            PACKAGE GWF_1           CONNECTED TO MODEL GWF_1            PACKAGE RIV_SYS1         ON UNIT   1019 AT TIME STEP      1, STRESS PERIOD    115
 UBDSV06 SAVING              RIV IN MODEL GWF_1            PACKAGE GWF_1           CONNECTED TO MODEL GWF_1            PACKAGE RIV_SYS2         ON UNIT   1019 AT TIME STEP      1, STRESS PERIOD    115

 HEAD WILL BE SAVED ON UNIT 1018 AT END OF TIME STEP    1, STRESS PERIOD  115


  VOLUME BUDGET FOR ENTIRE MODEL AT END OF TIME STEP    1, STRESS PERIOD 115
  ---------------------------------------------------------------------------------------------------

     CUMULATIVE VOLUME      L**3       RATES FOR THIS TIME STEP      L**3/T          PACKAGE NAME    
     ------------------                 ------------------------                     ----------------

           IN:                                      IN:
           ---                                      ---
              STO-SS =      116447.4996                STO-SS =        1146.2669     STORAGE                          
                 WEL =       82807.3695                   WEL =         963.2276     RIV_CORR                         
                 DRN =           0.0000                   DRN =           0.0000     DRN_SYS1                         
                 RIV =       75982.5711                   RIV =        1035.3346     RIV_SYS1                         
                 RIV =           0.0000                   RIV =           0.0000     RIV_SYS2                         
                 RCH =      211757.1166                   RCH =          41.7649     RCH_MSW                          

            TOTAL IN =      486994.5568              TOTAL IN =        3186.5939

          OUT:                                     OUT:
          ----                                     ----
              STO-SS =       77912.7112                STO-SS =           0.0000     STORAGE                          
                 WEL =      137884.4355                   WEL =         789.0706     RIV_CORR                         
                 DRN =       31042.6868                   DRN =         249.7795     DRN_SYS1                         
                 RIV =      127650.4104                   RIV =         779.6186     RIV_SYS1                         
                 RIV =       83734.3792                   RIV =         673.0899     RIV_SYS2                         
                 RCH =       28771.1048                   RCH =         694.9640     RCH_MSW                          

           TOTAL OUT =      486995.7281             TOTAL OUT =        3186.5226

            IN - OUT =          -1.1713              IN - OUT =       7.1263E-02

 PERCENT DISCREPANCY =          -0.00     PERCENT DISCREPANCY =           0.00




         TIME SUMMARY AT END OF TIME STEP    1 IN STRESS PERIOD  115
                    SECONDS     MINUTES      HOURS       DAYS        YEARS
                    -----------------------------------------------------------
   TIME STEP LENGTH  86400.      1440.0      24.000      1.0000     2.73785E-03
 STRESS PERIOD TIME  86400.      1440.0      24.000      1.0000     2.73785E-03
         TOTAL TIME 9.93600E+06 1.65600E+05  2760.0      115.00     0.31485    


end timestep


start timestep kper="116" kstp="1" mode="normal"

 #Stressperiod Save Options

 BEGIN READING OUTPUT CONTROL FOR STRESS PERIOD 116
      ALL TIME STEPS WILL BE SAVED
      ALL TIME STEPS WILL BE SAVED

 END READING OUTPUT CONTROL FOR STRESS PERIOD 116


 PROCESSING STORAGE PERIOD DATA
 END PROCESSING STORAGE PERIOD DATA


 STRESS PERIOD 116 IS TRANSIENT


 REUSING WELS FROM LAST STRESS PERIOD

 REUSING DRNS FROM LAST STRESS PERIOD

 REUSING RIVS FROM LAST STRESS PERIOD

 REUSING RIVS FROM LAST STRESS PERIOD

 REUSING RCHS FROM LAST STRESS PERIOD
 UBDSV06 SAVING              DRN IN MODEL GWF_1            PACKAGE GWF_1           CONNECTED TO MODEL GWF_1            PACKAGE DRN_SYS1         ON UNIT   1019 AT TIME STEP      1, STRESS PERIOD    116
 UBDSV06 SAVING              RIV IN MODEL GWF_1            PACKAGE GWF_1           CONNECTED TO MODEL GWF_1            PACKAGE RIV_SYS1         ON UNIT   1019 AT TIME STEP      1, STRESS PERIOD    116
 UBDSV06 SAVING              RIV IN MODEL GWF_1            PACKAGE GWF_1           CONNECTED TO MODEL GWF_1            PACKAGE RIV_SYS2         ON UNIT   1019 AT TIME STEP      1, STRESS PERIOD    116

 HEAD WILL BE SAVED ON UNIT 1018 AT END OF TIME STEP    1, STRESS PERIOD  116


  VOLUME BUDGET FOR ENTIRE MODEL AT END OF TIME STEP    1, STRESS PERIOD 116
  ---------------------------------------------------------------------------------------------------

     CUMULATIVE VOLUME      L**3       RATES FOR THIS TIME STEP      L**3/T          PACKAGE NAME    
     ------------------                 ------------------------                     ----------------

           IN:                                      IN:
           ---                                      ---
              STO-SS =      117405.9708                STO-SS =         958.4712     STORAGE                          
                 WEL =       83842.7041                   WEL =        1035.3346     RIV_CORR                         
                 DRN =           0.0000                   DRN =           0.0000     DRN_SYS1                         
                 RIV =       76906.2037                   RIV =         923.6327     RIV_SYS1                         
                 RIV =           0.0000                   RIV =           0.0000     RIV_SYS2                         
                 RCH =      211853.3897                   RCH =          96.2730     RCH_MSW                          

            TOTAL IN =      490008.2683              TOTAL IN =        3013.7115

          OUT:                                     OUT:
          ----                                     ----
              STO-SS =       77983.8543                STO-SS =          71.1431     STORAGE                          
                 WEL =      138664.0541                   WEL =         779.6186     RIV_CORR                         
                 DRN =       31290.7804                   DRN =         248.0936     DRN_SYS1                         
                 RIV =      128425.5030                   RIV =         775.0925     RIV_SYS1                         
                 RIV =       84403.2962                   RIV =         668.9170     RIV_SYS2                         
                 RCH =       29241.9554                   RCH =         470.8505     RCH_MSW                          

           TOTAL OUT =      490009.4434             TOTAL OUT =        3013.7153

            IN - OUT =          -1.1751              IN - OUT =      -3.7692E-03

 PERCENT DISCREPANCY =          -0.00     PERCENT DISCREPANCY =          -0.00




         TIME SUMMARY AT END OF TIME STEP    1 IN STRESS PERIOD  116
                    SECONDS     MINUTES      HOURS       DAYS        YEARS
                    -----------------------------------------------------------
   TIME STEP LENGTH  86400.      1440.0      24.000      1.0000     2.73785E-03
 STRESS PERIOD TIME  86400.      1440.0      24.000      1.0000     2.73785E-03
         TOTAL TIME 1.00224E+07 1.67040E+05  2784.0      116.00     0.31759    


end timestep


start timestep kper="117" kstp="1" mode="normal"

 #Stressperiod Save Options

 BEGIN READING OUTPUT CONTROL FOR STRESS PERIOD 117
      ALL TIME STEPS WILL BE SAVED
      ALL TIME STEPS WILL BE SAVED

 END READING OUTPUT CONTROL FOR STRESS PERIOD 117


 PROCESSING STORAGE PERIOD DATA
 END PROCESSING STORAGE PERIOD DATA


 STRESS PERIOD 117 IS TRANSIENT


 REUSING WELS FROM LAST STRESS PERIOD

 REUSING DRNS FROM LAST STRESS PERIOD

 REUSING RIVS FROM LAST STRESS PERIOD

 REUSING RIVS FROM LAST STRESS PERIOD

 REUSING RCHS FROM LAST STRESS PERIOD
 UBDSV06 SAVING              DRN IN MODEL GWF_1            PACKAGE GWF_1           CONNECTED TO MODEL GWF_1            PACKAGE DRN_SYS1         ON UNIT   1019 AT TIME STEP      1, STRESS PERIOD    117
 UBDSV06 SAVING              RIV IN MODEL GWF_1            PACKAGE GWF_1           CONNECTED TO MODEL GWF_1            PACKAGE RIV_SYS1         ON UNIT   1019 AT TIME STEP      1, STRESS PERIOD    117
 UBDSV06 SAVING              RIV IN MODEL GWF_1            PACKAGE GWF_1           CONNECTED TO MODEL GWF_1            PACKAGE RIV_SYS2         ON UNIT   1019 AT TIME STEP      1, STRESS PERIOD    117

 HEAD WILL BE SAVED ON UNIT 1018 AT END OF TIME STEP    1, STRESS PERIOD  117


  VOLUME BUDGET FOR ENTIRE MODEL AT END OF TIME STEP    1, STRESS PERIOD 117
  ---------------------------------------------------------------------------------------------------

     CUMULATIVE VOLUME      L**3       RATES FOR THIS TIME STEP      L**3/T          PACKAGE NAME    
     ------------------                 ------------------------                     ----------------

           IN:                                      IN:
           ---                                      ---
              STO-SS =      118317.8074                STO-SS =         911.8367     STORAGE                          
                 WEL =       84766.3368                   WEL =         923.6327     RIV_CORR                         
                 DRN =           0.0000                   DRN =           0.0000     DRN_SYS1                         
                 RIV =       77898.4688                   RIV =         992.2651     RIV_SYS1                         
                 RIV =           0.0000                   RIV =           0.0000     RIV_SYS2                         
                 RCH =      211903.7243                   RCH =          50.3346     RCH_MSW                          

            TOTAL IN =      492886.3373              TOTAL IN =        2878.0690

          OUT:                                     OUT:
          ----                                     ----
              STO-SS =       77985.4544                STO-SS =           1.6001     STORAGE                          
                 WEL =      139439.1466                   WEL =         775.0925     RIV_CORR                         
                 DRN =       31537.3528                   DRN =         246.5725     DRN_SYS1                         
                 RIV =      129191.3365                   RIV =         765.8336     RIV_SYS1                         
                 RIV =       85068.4909                   RIV =         665.1946     RIV_SYS2                         
                 RCH =       29665.7292                   RCH =         423.7738     RCH_MSW                          

           TOTAL OUT =      492887.5105             TOTAL OUT =        2878.0671

            IN - OUT =          -1.1731              IN - OUT =       1.9563E-03

 PERCENT DISCREPANCY =          -0.00     PERCENT DISCREPANCY =           0.00




         TIME SUMMARY AT END OF TIME STEP    1 IN STRESS PERIOD  117
                    SECONDS     MINUTES      HOURS       DAYS        YEARS
                    -----------------------------------------------------------
   TIME STEP LENGTH  86400.      1440.0      24.000      1.0000     2.73785E-03
 STRESS PERIOD TIME  86400.      1440.0      24.000      1.0000     2.73785E-03
         TOTAL TIME 1.01088E+07 1.68480E+05  2808.0      117.00     0.32033    


end timestep


start timestep kper="118" kstp="1" mode="normal"

 #Stressperiod Save Options

 BEGIN READING OUTPUT CONTROL FOR STRESS PERIOD 118
      ALL TIME STEPS WILL BE SAVED
      ALL TIME STEPS WILL BE SAVED

 END READING OUTPUT CONTROL FOR STRESS PERIOD 118


 PROCESSING STORAGE PERIOD DATA
 END PROCESSING STORAGE PERIOD DATA


 STRESS PERIOD 118 IS TRANSIENT


 REUSING WELS FROM LAST STRESS PERIOD

 REUSING DRNS FROM LAST STRESS PERIOD

 REUSING RIVS FROM LAST STRESS PERIOD

 REUSING RIVS FROM LAST STRESS PERIOD

 REUSING RCHS FROM LAST STRESS PERIOD
 UBDSV06 SAVING              DRN IN MODEL GWF_1            PACKAGE GWF_1           CONNECTED TO MODEL GWF_1            PACKAGE DRN_SYS1         ON UNIT   1019 AT TIME STEP      1, STRESS PERIOD    118
 UBDSV06 SAVING              RIV IN MODEL GWF_1            PACKAGE GWF_1           CONNECTED TO MODEL GWF_1            PACKAGE RIV_SYS1         ON UNIT   1019 AT TIME STEP      1, STRESS PERIOD    118
 UBDSV06 SAVING              RIV IN MODEL GWF_1            PACKAGE GWF_1           CONNECTED TO MODEL GWF_1            PACKAGE RIV_SYS2         ON UNIT   1019 AT TIME STEP      1, STRESS PERIOD    118

 HEAD WILL BE SAVED ON UNIT 1018 AT END OF TIME STEP    1, STRESS PERIOD  118


  VOLUME BUDGET FOR ENTIRE MODEL AT END OF TIME STEP    1, STRESS PERIOD 118
  ---------------------------------------------------------------------------------------------------

     CUMULATIVE VOLUME      L**3       RATES FOR THIS TIME STEP      L**3/T          PACKAGE NAME    
     ------------------                 ------------------------                     ----------------

           IN:                                      IN:
           ---                                      ---
              STO-SS =      119206.7610                STO-SS =         888.9535     STORAGE                          
                 WEL =       85758.6019                   WEL =         992.2651     RIV_CORR                         
                 DRN =           0.0000                   DRN =           0.0000     DRN_SYS1                         
                 RIV =       78911.6659                   RIV =        1013.1971     RIV_SYS1                         
                 RIV =           0.0000                   RIV =           0.0000     RIV_SYS2                         
                 RCH =      211944.1649                   RCH =          40.4406     RCH_MSW                          

            TOTAL IN =      495821.1937              TOTAL IN =        2934.8563

          OUT:                                     OUT:
          ----                                     ----
              STO-SS =       77985.7729                STO-SS =           0.3185     STORAGE                          
                 WEL =      140204.9802                   WEL =         765.8336     RIV_CORR                         
                 DRN =       31782.5189                   DRN =         245.1661     DRN_SYS1                         
                 RIV =      129950.4266                   RIV =         759.0901     RIV_SYS1                         
                 RIV =       85730.2055                   RIV =         661.7146     RIV_SYS2                         
                 RCH =       30168.5289                   RCH =         502.7997     RCH_MSW                          

           TOTAL OUT =      495822.4330             TOTAL OUT =        2934.9225

            IN - OUT =          -1.2393              IN - OUT =      -6.6174E-02

 PERCENT DISCREPANCY =          -0.00     PERCENT DISCREPANCY =          -0.00




         TIME SUMMARY AT END OF TIME STEP    1 IN STRESS PERIOD  118
                    SECONDS     MINUTES      HOURS       DAYS        YEARS
                    -----------------------------------------------------------
   TIME STEP LENGTH  86400.      1440.0      24.000      1.0000     2.73785E-03
 STRESS PERIOD TIME  86400.      1440.0      24.000      1.0000     2.73785E-03
         TOTAL TIME 1.01952E+07 1.69920E+05  2832.0      118.00     0.32307    


end timestep


start timestep kper="119" kstp="1" mode="normal"

 #Stressperiod Save Options

 BEGIN READING OUTPUT CONTROL FOR STRESS PERIOD 119
      ALL TIME STEPS WILL BE SAVED
      ALL TIME STEPS WILL BE SAVED

 END READING OUTPUT CONTROL FOR STRESS PERIOD 119


 PROCESSING STORAGE PERIOD DATA
 END PROCESSING STORAGE PERIOD DATA


 STRESS PERIOD 119 IS TRANSIENT


 REUSING WELS FROM LAST STRESS PERIOD

 REUSING DRNS FROM LAST STRESS PERIOD

 REUSING RIVS FROM LAST STRESS PERIOD

 REUSING RIVS FROM LAST STRESS PERIOD

 REUSING RCHS FROM LAST STRESS PERIOD
 UBDSV06 SAVING              DRN IN MODEL GWF_1            PACKAGE GWF_1           CONNECTED TO MODEL GWF_1            PACKAGE DRN_SYS1         ON UNIT   1019 AT TIME STEP      1, STRESS PERIOD    119
 UBDSV06 SAVING              RIV IN MODEL GWF_1            PACKAGE GWF_1           CONNECTED TO MODEL GWF_1            PACKAGE RIV_SYS1         ON UNIT   1019 AT TIME STEP      1, STRESS PERIOD    119
 UBDSV06 SAVING              RIV IN MODEL GWF_1            PACKAGE GWF_1           CONNECTED TO MODEL GWF_1            PACKAGE RIV_SYS2         ON UNIT   1019 AT TIME STEP      1, STRESS PERIOD    119

 HEAD WILL BE SAVED ON UNIT 1018 AT END OF TIME STEP    1, STRESS PERIOD  119


  VOLUME BUDGET FOR ENTIRE MODEL AT END OF TIME STEP    1, STRESS PERIOD 119
  ---------------------------------------------------------------------------------------------------

     CUMULATIVE VOLUME      L**3       RATES FOR THIS TIME STEP      L**3/T          PACKAGE NAME    
     ------------------                 ------------------------                     ----------------

           IN:                                      IN:
           ---                                      ---
              STO-SS =      120226.2589                STO-SS =        1019.4979     STORAGE                          
                 WEL =       86771.7990                   WEL =        1013.1971     RIV_CORR                         
                 DRN =           0.0000                   DRN =           0.0000     DRN_SYS1                         
                 RIV =       80049.9560                   RIV =        1138.2901     RIV_SYS1                         
                 RIV =           0.0000                   RIV =           0.0000     RIV_SYS2                         
                 RCH =      211964.0342                   RCH =          19.8694     RCH_MSW                          

            TOTAL IN =      499012.0482              TOTAL IN =        3190.8545

          OUT:                                     OUT:
          ----                                     ----
              STO-SS =       77985.7729                STO-SS =           0.0000     STORAGE                          
                 WEL =      140964.0702                   WEL =         759.0901     RIV_CORR                         
                 DRN =       32026.3024                   DRN =         243.7835     DRN_SYS1                         
                 RIV =      130701.4273                   RIV =         751.0007     RIV_SYS1                         
                 RIV =       86388.3990                   RIV =         658.1936     RIV_SYS2                         
                 RCH =       30947.3384                   RCH =         778.8095     RCH_MSW                          

           TOTAL OUT =      499013.3103             TOTAL OUT =        3190.8773

            IN - OUT =          -1.2621              IN - OUT =      -2.2784E-02

 PERCENT DISCREPANCY =          -0.00     PERCENT DISCREPANCY =          -0.00




         TIME SUMMARY AT END OF TIME STEP    1 IN STRESS PERIOD  119
                    SECONDS     MINUTES      HOURS       DAYS        YEARS
                    -----------------------------------------------------------
   TIME STEP LENGTH  86400.      1440.0      24.000      1.0000     2.73785E-03
 STRESS PERIOD TIME  86400.      1440.0      24.000      1.0000     2.73785E-03
         TOTAL TIME 1.02816E+07 1.71360E+05  2856.0      119.00     0.32580    


end timestep


start timestep kper="120" kstp="1" mode="normal"

 #Stressperiod Save Options

 BEGIN READING OUTPUT CONTROL FOR STRESS PERIOD 120
      ALL TIME STEPS WILL BE SAVED
      ALL TIME STEPS WILL BE SAVED

 END READING OUTPUT CONTROL FOR STRESS PERIOD 120


 PROCESSING STORAGE PERIOD DATA
 END PROCESSING STORAGE PERIOD DATA


 STRESS PERIOD 120 IS TRANSIENT


 REUSING WELS FROM LAST STRESS PERIOD

 REUSING DRNS FROM LAST STRESS PERIOD

 REUSING RIVS FROM LAST STRESS PERIOD

 REUSING RIVS FROM LAST STRESS PERIOD

 REUSING RCHS FROM LAST STRESS PERIOD
 UBDSV06 SAVING              DRN IN MODEL GWF_1            PACKAGE GWF_1           CONNECTED TO MODEL GWF_1            PACKAGE DRN_SYS1         ON UNIT   1019 AT TIME STEP      1, STRESS PERIOD    120
 UBDSV06 SAVING              RIV IN MODEL GWF_1            PACKAGE GWF_1           CONNECTED TO MODEL GWF_1            PACKAGE RIV_SYS1         ON UNIT   1019 AT TIME STEP      1, STRESS PERIOD    120
 UBDSV06 SAVING              RIV IN MODEL GWF_1            PACKAGE GWF_1           CONNECTED TO MODEL GWF_1            PACKAGE RIV_SYS2         ON UNIT   1019 AT TIME STEP      1, STRESS PERIOD    120

 HEAD WILL BE SAVED ON UNIT 1018 AT END OF TIME STEP    1, STRESS PERIOD  120


  VOLUME BUDGET FOR ENTIRE MODEL AT END OF TIME STEP    1, STRESS PERIOD 120
  ---------------------------------------------------------------------------------------------------

     CUMULATIVE VOLUME      L**3       RATES FOR THIS TIME STEP      L**3/T          PACKAGE NAME    
     ------------------                 ------------------------                     ----------------

           IN:                                      IN:
           ---                                      ---
              STO-SS =      121185.0206                STO-SS =         958.7617     STORAGE                          
                 WEL =       87910.0891                   WEL =        1138.2901     RIV_CORR                         
                 DRN =           0.0000                   DRN =           0.0000     DRN_SYS1                         
                 RIV =       81200.7751                   RIV =        1150.8191     RIV_SYS1                         
                 RIV =           0.0000                   RIV =           0.0000     RIV_SYS2                         
                 RCH =      211981.3572                   RCH =          17.3230     RCH_MSW                          

            TOTAL IN =      502277.2420              TOTAL IN =        3265.1938

          OUT:                                     OUT:
          ----                                     ----
              STO-SS =       77986.8099                STO-SS =           1.0370     STORAGE                          
                 WEL =      141715.0709                   WEL =         751.0007     RIV_CORR                         
                 DRN =       32268.6972                   DRN =         242.3948     DRN_SYS1                         
                 RIV =      131445.1267                   RIV =         743.6994     RIV_SYS1                         
                 RIV =       87043.0712                   RIV =         654.6721     RIV_SYS2                         
                 RCH =       31819.7461                   RCH =         872.4077     RCH_MSW                          

           TOTAL OUT =      502278.5220             TOTAL OUT =        3265.2117

            IN - OUT =          -1.2800              IN - OUT =      -1.7908E-02

 PERCENT DISCREPANCY =          -0.00     PERCENT DISCREPANCY =          -0.00




         TIME SUMMARY AT END OF TIME STEP    1 IN STRESS PERIOD  120
                    SECONDS     MINUTES      HOURS       DAYS        YEARS
                    -----------------------------------------------------------
   TIME STEP LENGTH  86400.      1440.0      24.000      1.0000     2.73785E-03
 STRESS PERIOD TIME  86400.      1440.0      24.000      1.0000     2.73785E-03
         TOTAL TIME 1.03680E+07 1.72800E+05  2880.0      120.00     0.32854    


end timestep


start timestep kper="121" kstp="1" mode="normal"

 #Stressperiod Save Options

 BEGIN READING OUTPUT CONTROL FOR STRESS PERIOD 121
      ALL TIME STEPS WILL BE SAVED
      ALL TIME STEPS WILL BE SAVED

 END READING OUTPUT CONTROL FOR STRESS PERIOD 121


 PROCESSING STORAGE PERIOD DATA
 END PROCESSING STORAGE PERIOD DATA


 STRESS PERIOD 121 IS TRANSIENT


 REUSING WELS FROM LAST STRESS PERIOD

 REUSING DRNS FROM LAST STRESS PERIOD

 REUSING RIVS FROM LAST STRESS PERIOD

 REUSING RIVS FROM LAST STRESS PERIOD

 REUSING RCHS FROM LAST STRESS PERIOD
 UBDSV06 SAVING              DRN IN MODEL GWF_1            PACKAGE GWF_1           CONNECTED TO MODEL GWF_1            PACKAGE DRN_SYS1         ON UNIT   1019 AT TIME STEP      1, STRESS PERIOD    121
 UBDSV06 SAVING              RIV IN MODEL GWF_1            PACKAGE GWF_1           CONNECTED TO MODEL GWF_1            PACKAGE RIV_SYS1         ON UNIT   1019 AT TIME STEP      1, STRESS PERIOD    121
 UBDSV06 SAVING              RIV IN MODEL GWF_1            PACKAGE GWF_1           CONNECTED TO MODEL GWF_1            PACKAGE RIV_SYS2         ON UNIT   1019 AT TIME STEP      1, STRESS PERIOD    121

 HEAD WILL BE SAVED ON UNIT 1018 AT END OF TIME STEP    1, STRESS PERIOD  121


  VOLUME BUDGET FOR ENTIRE MODEL AT END OF TIME STEP    1, STRESS PERIOD 121
  ---------------------------------------------------------------------------------------------------

     CUMULATIVE VOLUME      L**3       RATES FOR THIS TIME STEP      L**3/T          PACKAGE NAME    
     ------------------                 ------------------------                     ----------------

           IN:                                      IN:
           ---                                      ---
              STO-SS =      122122.2407                STO-SS =         937.2201     STORAGE                          
                 WEL =       89060.9082                   WEL =        1150.8191     RIV_CORR                         
                 DRN =           0.0000                   DRN =           0.0000     DRN_SYS1                         
                 RIV =       82387.9338                   RIV =        1187.1587     RIV_SYS1                         
                 RIV =           0.0000                   RIV =           0.0000     RIV_SYS2                         
                 RCH =      211996.4124                   RCH =          15.0553     RCH_MSW                          

            TOTAL IN =      505567.4950              TOTAL IN =        3290.2531

          OUT:                                     OUT:
          ----                                     ----
              STO-SS =       77986.8099                STO-SS =           0.0000     STORAGE                          
                 WEL =      142458.7703                   WEL =         743.6994     RIV_CORR                         
                 DRN =       32509.7147                   DRN =         241.0175     DRN_SYS1                         
                 RIV =      132181.5432                   RIV =         736.4166     RIV_SYS1                         
                 RIV =       87694.2756                   RIV =         651.2045     RIV_SYS2                         
                 RCH =       32737.6474                   RCH =         917.9014     RCH_MSW                          

           TOTAL OUT =      505568.7612             TOTAL OUT =        3290.2393

            IN - OUT =          -1.2662              IN - OUT =       1.3797E-02

 PERCENT DISCREPANCY =          -0.00     PERCENT DISCREPANCY =           0.00




         TIME SUMMARY AT END OF TIME STEP    1 IN STRESS PERIOD  121
                    SECONDS     MINUTES      HOURS       DAYS        YEARS
                    -----------------------------------------------------------
   TIME STEP LENGTH  86400.      1440.0      24.000      1.0000     2.73785E-03
 STRESS PERIOD TIME  86400.      1440.0      24.000      1.0000     2.73785E-03
         TOTAL TIME 1.04544E+07 1.74240E+05  2904.0      121.00     0.33128    


end timestep


start timestep kper="122" kstp="1" mode="normal"

 #Stressperiod Save Options

 BEGIN READING OUTPUT CONTROL FOR STRESS PERIOD 122
      ALL TIME STEPS WILL BE SAVED
      ALL TIME STEPS WILL BE SAVED

 END READING OUTPUT CONTROL FOR STRESS PERIOD 122


 PROCESSING STORAGE PERIOD DATA
 END PROCESSING STORAGE PERIOD DATA


 STRESS PERIOD 122 IS TRANSIENT


 REUSING WELS FROM LAST STRESS PERIOD

 REUSING DRNS FROM LAST STRESS PERIOD

 REUSING RIVS FROM LAST STRESS PERIOD

 REUSING RIVS FROM LAST STRESS PERIOD

 REUSING RCHS FROM LAST STRESS PERIOD
 UBDSV06 SAVING              DRN IN MODEL GWF_1            PACKAGE GWF_1           CONNECTED TO MODEL GWF_1            PACKAGE DRN_SYS1         ON UNIT   1019 AT TIME STEP      1, STRESS PERIOD    122
 UBDSV06 SAVING              RIV IN MODEL GWF_1            PACKAGE GWF_1           CONNECTED TO MODEL GWF_1            PACKAGE RIV_SYS1         ON UNIT   1019 AT TIME STEP      1, STRESS PERIOD    122
 UBDSV06 SAVING              RIV IN MODEL GWF_1            PACKAGE GWF_1           CONNECTED TO MODEL GWF_1            PACKAGE RIV_SYS2         ON UNIT   1019 AT TIME STEP      1, STRESS PERIOD    122

 HEAD WILL BE SAVED ON UNIT 1018 AT END OF TIME STEP    1, STRESS PERIOD  122


  VOLUME BUDGET FOR ENTIRE MODEL AT END OF TIME STEP    1, STRESS PERIOD 122
  ---------------------------------------------------------------------------------------------------

     CUMULATIVE VOLUME      L**3       RATES FOR THIS TIME STEP      L**3/T          PACKAGE NAME    
     ------------------                 ------------------------                     ----------------

           IN:                                      IN:
           ---                                      ---
              STO-SS =      123067.5000                STO-SS =         945.2594     STORAGE                          
                 WEL =       90248.0668                   WEL =        1187.1587     RIV_CORR                         
                 DRN =           0.0000                   DRN =           0.0000     DRN_SYS1                         
                 RIV =       83632.9803                   RIV =        1245.0465     RIV_SYS1                         
                 RIV =           0.0000                   RIV =           0.0000     RIV_SYS2                         
                 RCH =      212009.3692                   RCH =          12.9568     RCH_MSW                          

            TOTAL IN =      508957.9164              TOTAL IN =        3390.4213

          OUT:                                     OUT:
          ----                                     ----
              STO-SS =       77986.8099                STO-SS =           0.0000     STORAGE                          
                 WEL =      143195.1869                   WEL =         736.4166     RIV_CORR                         
                 DRN =       32749.3743                   DRN =         239.6596     DRN_SYS1                         
                 RIV =      132910.5659                   RIV =         729.0226     RIV_SYS1                         
                 RIV =       88342.0745                   RIV =         647.7988     RIV_SYS2                         
                 RCH =       33775.2747                   RCH =        1037.6273     RCH_MSW                          

           TOTAL OUT =      508959.2861             TOTAL OUT =        3390.5248

            IN - OUT =          -1.3697              IN - OUT =          -0.1035

 PERCENT DISCREPANCY =          -0.00     PERCENT DISCREPANCY =          -0.00




         TIME SUMMARY AT END OF TIME STEP    1 IN STRESS PERIOD  122
                    SECONDS     MINUTES      HOURS       DAYS        YEARS
                    -----------------------------------------------------------
   TIME STEP LENGTH  86400.      1440.0      24.000      1.0000     2.73785E-03
 STRESS PERIOD TIME  86400.      1440.0      24.000      1.0000     2.73785E-03
         TOTAL TIME 1.05408E+07 1.75680E+05  2928.0      122.00     0.33402    


end timestep


start timestep kper="123" kstp="1" mode="normal"

 #Stressperiod Save Options

 BEGIN READING OUTPUT CONTROL FOR STRESS PERIOD 123
      ALL TIME STEPS WILL BE SAVED
      ALL TIME STEPS WILL BE SAVED

 END READING OUTPUT CONTROL FOR STRESS PERIOD 123


 PROCESSING STORAGE PERIOD DATA
 END PROCESSING STORAGE PERIOD DATA


 STRESS PERIOD 123 IS TRANSIENT


 REUSING WELS FROM LAST STRESS PERIOD

 REUSING DRNS FROM LAST STRESS PERIOD

 REUSING RIVS FROM LAST STRESS PERIOD

 REUSING RIVS FROM LAST STRESS PERIOD

 REUSING RCHS FROM LAST STRESS PERIOD
 UBDSV06 SAVING              DRN IN MODEL GWF_1            PACKAGE GWF_1           CONNECTED TO MODEL GWF_1            PACKAGE DRN_SYS1         ON UNIT   1019 AT TIME STEP      1, STRESS PERIOD    123
 UBDSV06 SAVING              RIV IN MODEL GWF_1            PACKAGE GWF_1           CONNECTED TO MODEL GWF_1            PACKAGE RIV_SYS1         ON UNIT   1019 AT TIME STEP      1, STRESS PERIOD    123
 UBDSV06 SAVING              RIV IN MODEL GWF_1            PACKAGE GWF_1           CONNECTED TO MODEL GWF_1            PACKAGE RIV_SYS2         ON UNIT   1019 AT TIME STEP      1, STRESS PERIOD    123

 HEAD WILL BE SAVED ON UNIT 1018 AT END OF TIME STEP    1, STRESS PERIOD  123


  VOLUME BUDGET FOR ENTIRE MODEL AT END OF TIME STEP    1, STRESS PERIOD 123
  ---------------------------------------------------------------------------------------------------

     CUMULATIVE VOLUME      L**3       RATES FOR THIS TIME STEP      L**3/T          PACKAGE NAME    
     ------------------                 ------------------------                     ----------------

           IN:                                      IN:
           ---                                      ---
              STO-SS =      123984.5320                STO-SS =         917.0320     STORAGE                          
                 WEL =       91493.1133                   WEL =        1245.0465     RIV_CORR                         
                 DRN =           0.0000                   DRN =           0.0000     DRN_SYS1                         
                 RIV =       84911.9116                   RIV =        1278.9313     RIV_SYS1                         
                 RIV =           0.0000                   RIV =           0.0000     RIV_SYS2                         
                 RCH =      212020.5835                   RCH =          11.2142     RCH_MSW                          

            TOTAL IN =      512410.1405              TOTAL IN =        3452.2241

          OUT:                                     OUT:
          ----                                     ----
              STO-SS =       77986.8099                STO-SS =           0.0000     STORAGE                          
                 WEL =      143924.2095                   WEL =         729.0226     RIV_CORR                         
                 DRN =       32987.7020                   DRN =         238.3278     DRN_SYS1                         
                 RIV =      133632.6073                   RIV =         722.0414     RIV_SYS1                         
                 RIV =       88986.5343                   RIV =         644.4599     RIV_SYS2                         
                 RCH =       34893.6977                   RCH =        1118.4230     RCH_MSW                          

           TOTAL OUT =      512411.5607             TOTAL OUT =        3452.2746

            IN - OUT =          -1.4203              IN - OUT =      -5.0542E-02

 PERCENT DISCREPANCY =          -0.00     PERCENT DISCREPANCY =          -0.00




         TIME SUMMARY AT END OF TIME STEP    1 IN STRESS PERIOD  123
                    SECONDS     MINUTES      HOURS       DAYS        YEARS
                    -----------------------------------------------------------
   TIME STEP LENGTH  86400.      1440.0      24.000      1.0000     2.73785E-03
 STRESS PERIOD TIME  86400.      1440.0      24.000      1.0000     2.73785E-03
         TOTAL TIME 1.06272E+07 1.77120E+05  2952.0      123.00     0.33676    


end timestep


start timestep kper="124" kstp="1" mode="normal"

 #Stressperiod Save Options

 BEGIN READING OUTPUT CONTROL FOR STRESS PERIOD 124
      ALL TIME STEPS WILL BE SAVED
      ALL TIME STEPS WILL BE SAVED

 END READING OUTPUT CONTROL FOR STRESS PERIOD 124


 PROCESSING STORAGE PERIOD DATA
 END PROCESSING STORAGE PERIOD DATA


 STRESS PERIOD 124 IS TRANSIENT


 REUSING WELS FROM LAST STRESS PERIOD

 REUSING DRNS FROM LAST STRESS PERIOD

 REUSING RIVS FROM LAST STRESS PERIOD

 REUSING RIVS FROM LAST STRESS PERIOD

 REUSING RCHS FROM LAST STRESS PERIOD
 UBDSV06 SAVING              DRN IN MODEL GWF_1            PACKAGE GWF_1           CONNECTED TO MODEL GWF_1            PACKAGE DRN_SYS1         ON UNIT   1019 AT TIME STEP      1, STRESS PERIOD    124
 UBDSV06 SAVING              RIV IN MODEL GWF_1            PACKAGE GWF_1           CONNECTED TO MODEL GWF_1            PACKAGE RIV_SYS1         ON UNIT   1019 AT TIME STEP      1, STRESS PERIOD    124
 UBDSV06 SAVING              RIV IN MODEL GWF_1            PACKAGE GWF_1           CONNECTED TO MODEL GWF_1            PACKAGE RIV_SYS2         ON UNIT   1019 AT TIME STEP      1, STRESS PERIOD    124

 HEAD WILL BE SAVED ON UNIT 1018 AT END OF TIME STEP    1, STRESS PERIOD  124


  VOLUME BUDGET FOR ENTIRE MODEL AT END OF TIME STEP    1, STRESS PERIOD 124
  ---------------------------------------------------------------------------------------------------

     CUMULATIVE VOLUME      L**3       RATES FOR THIS TIME STEP      L**3/T          PACKAGE NAME    
     ------------------                 ------------------------                     ----------------

           IN:                                      IN:
           ---                                      ---
              STO-SS =      124776.0918                STO-SS =         791.5598     STORAGE                          
                 WEL =       92772.0447                   WEL =        1278.9313     RIV_CORR                         
                 DRN =           0.0000                   DRN =           0.0000     DRN_SYS1                         
                 RIV =       86114.6072                   RIV =        1202.6956     RIV_SYS1                         
                 RIV =           0.0000                   RIV =           0.0000     RIV_SYS2                         
                 RCH =      212030.2124                   RCH =           9.6289     RCH_MSW                          

            TOTAL IN =      515692.9561              TOTAL IN =        3282.8156

          OUT:                                     OUT:
          ----                                     ----
              STO-SS =       78017.5525                STO-SS =          30.7426     STORAGE                          
                 WEL =      144646.2509                   WEL =         722.0414     RIV_CORR                         
                 DRN =       33224.7708                   DRN =         237.0688     DRN_SYS1                         
                 RIV =      134349.1093                   RIV =         716.5020     RIV_SYS1                         
                 RIV =       89627.8630                   RIV =         641.3286     RIV_SYS2                         
                 RCH =       35828.8289                   RCH =         935.1312     RCH_MSW                          

           TOTAL OUT =      515694.3755             TOTAL OUT =        3282.8147

            IN - OUT =          -1.4194              IN - OUT =       9.0719E-04

 PERCENT DISCREPANCY =          -0.00     PERCENT DISCREPANCY =           0.00




         TIME SUMMARY AT END OF TIME STEP    1 IN STRESS PERIOD  124
                    SECONDS     MINUTES      HOURS       DAYS        YEARS
                    -----------------------------------------------------------
   TIME STEP LENGTH  86400.      1440.0      24.000      1.0000     2.73785E-03
 STRESS PERIOD TIME  86400.      1440.0      24.000      1.0000     2.73785E-03
         TOTAL TIME 1.07136E+07 1.78560E+05  2976.0      124.00     0.33949    


end timestep


start timestep kper="125" kstp="1" mode="normal"

 #Stressperiod Save Options

 BEGIN READING OUTPUT CONTROL FOR STRESS PERIOD 125
      ALL TIME STEPS WILL BE SAVED
      ALL TIME STEPS WILL BE SAVED

 END READING OUTPUT CONTROL FOR STRESS PERIOD 125


 PROCESSING STORAGE PERIOD DATA
 END PROCESSING STORAGE PERIOD DATA


 STRESS PERIOD 125 IS TRANSIENT


 REUSING WELS FROM LAST STRESS PERIOD

 REUSING DRNS FROM LAST STRESS PERIOD

 REUSING RIVS FROM LAST STRESS PERIOD

 REUSING RIVS FROM LAST STRESS PERIOD

 REUSING RCHS FROM LAST STRESS PERIOD
 UBDSV06 SAVING              DRN IN MODEL GWF_1            PACKAGE GWF_1           CONNECTED TO MODEL GWF_1            PACKAGE DRN_SYS1         ON UNIT   1019 AT TIME STEP      1, STRESS PERIOD    125
 UBDSV06 SAVING              RIV IN MODEL GWF_1            PACKAGE GWF_1           CONNECTED TO MODEL GWF_1            PACKAGE RIV_SYS1         ON UNIT   1019 AT TIME STEP      1, STRESS PERIOD    125
 UBDSV06 SAVING              RIV IN MODEL GWF_1            PACKAGE GWF_1           CONNECTED TO MODEL GWF_1            PACKAGE RIV_SYS2         ON UNIT   1019 AT TIME STEP      1, STRESS PERIOD    125

 HEAD WILL BE SAVED ON UNIT 1018 AT END OF TIME STEP    1, STRESS PERIOD  125


  VOLUME BUDGET FOR ENTIRE MODEL AT END OF TIME STEP    1, STRESS PERIOD 125
  ---------------------------------------------------------------------------------------------------

     CUMULATIVE VOLUME      L**3       RATES FOR THIS TIME STEP      L**3/T          PACKAGE NAME    
     ------------------                 ------------------------                     ----------------

           IN:                                      IN:
           ---                                      ---
              STO-SS =      125577.9793                STO-SS =         801.8875     STORAGE                          
                 WEL =       93974.7402                   WEL =        1202.6956     RIV_CORR                         
                 DRN =           0.0000                   DRN =           0.0000     DRN_SYS1                         
                 RIV =       87388.9289                   RIV =        1274.3217     RIV_SYS1                         
                 RIV =           0.0000                   RIV =           0.0000     RIV_SYS2                         
                 RCH =      212038.4595                   RCH =           8.2471     RCH_MSW                          

            TOTAL IN =      518980.1079              TOTAL IN =        3287.1518

          OUT:                                     OUT:
          ----                                     ----
              STO-SS =       78017.5525                STO-SS =           0.0000     STORAGE                          
                 WEL =      145362.7530                   WEL =         716.5020     RIV_CORR                         
                 DRN =       33460.6484                   DRN =         235.8776     DRN_SYS1                         
                 RIV =      135059.4949                   RIV =         710.3856     RIV_SYS1                         
                 RIV =       90266.2249                   RIV =         638.3619     RIV_SYS2                         
                 RCH =       36814.8000                   RCH =         985.9711     RCH_MSW                          

           TOTAL OUT =      518981.4737             TOTAL OUT =        3287.0982

            IN - OUT =          -1.3658              IN - OUT =       5.3546E-02

 PERCENT DISCREPANCY =          -0.00     PERCENT DISCREPANCY =           0.00




         TIME SUMMARY AT END OF TIME STEP    1 IN STRESS PERIOD  125
                    SECONDS     MINUTES      HOURS       DAYS        YEARS
                    -----------------------------------------------------------
   TIME STEP LENGTH  86400.      1440.0      24.000      1.0000     2.73785E-03
 STRESS PERIOD TIME  86400.      1440.0      24.000      1.0000     2.73785E-03
         TOTAL TIME 1.08000E+07 1.80000E+05  3000.0      125.00     0.34223    


end timestep


start timestep kper="126" kstp="1" mode="normal"

 #Stressperiod Save Options

 BEGIN READING OUTPUT CONTROL FOR STRESS PERIOD 126
      ALL TIME STEPS WILL BE SAVED
      ALL TIME STEPS WILL BE SAVED

 END READING OUTPUT CONTROL FOR STRESS PERIOD 126


 PROCESSING STORAGE PERIOD DATA
 END PROCESSING STORAGE PERIOD DATA


 STRESS PERIOD 126 IS TRANSIENT


 REUSING WELS FROM LAST STRESS PERIOD

 REUSING DRNS FROM LAST STRESS PERIOD

 REUSING RIVS FROM LAST STRESS PERIOD

 REUSING RIVS FROM LAST STRESS PERIOD

 REUSING RCHS FROM LAST STRESS PERIOD
 UBDSV06 SAVING              DRN IN MODEL GWF_1            PACKAGE GWF_1           CONNECTED TO MODEL GWF_1            PACKAGE DRN_SYS1         ON UNIT   1019 AT TIME STEP      1, STRESS PERIOD    126
 UBDSV06 SAVING              RIV IN MODEL GWF_1            PACKAGE GWF_1           CONNECTED TO MODEL GWF_1            PACKAGE RIV_SYS1         ON UNIT   1019 AT TIME STEP      1, STRESS PERIOD    126
 UBDSV06 SAVING              RIV IN MODEL GWF_1            PACKAGE GWF_1           CONNECTED TO MODEL GWF_1            PACKAGE RIV_SYS2         ON UNIT   1019 AT TIME STEP      1, STRESS PERIOD    126

 HEAD WILL BE SAVED ON UNIT 1018 AT END OF TIME STEP    1, STRESS PERIOD  126


  VOLUME BUDGET FOR ENTIRE MODEL AT END OF TIME STEP    1, STRESS PERIOD 126
  ---------------------------------------------------------------------------------------------------

     CUMULATIVE VOLUME      L**3       RATES FOR THIS TIME STEP      L**3/T          PACKAGE NAME    
     ------------------                 ------------------------                     ----------------

           IN:                                      IN:
           ---                                      ---
              STO-SS =      126080.4986                STO-SS =         502.5193     STORAGE                          
                 WEL =       95249.0619                   WEL =        1274.3217     RIV_CORR                         
                 DRN =           0.0000                   DRN =           0.0000     DRN_SYS1                         
                 RIV =       88102.3882                   RIV =         713.4593     RIV_SYS1                         
                 RIV =           0.0000                   RIV =           0.0000     RIV_SYS2                         
                 RCH =      213418.0006                   RCH =        1379.5411     RCH_MSW                          

            TOTAL IN =      522849.9492              TOTAL IN =        3869.8413

          OUT:                                     OUT:
          ----                                     ----
              STO-SS =       78870.6244                STO-SS =         853.0719     STORAGE                          
                 WEL =      146073.1386                   WEL =         710.3856     RIV_CORR                         
                 DRN =       33695.8239                   DRN =         235.1756     DRN_SYS1                         
                 RIV =      136045.5605                   RIV =         986.0655     RIV_SYS1                         
                 RIV =       90902.9890                   RIV =         636.7641     RIV_SYS2                         
                 RCH =       37263.1702                   RCH =         448.3702     RCH_MSW                          

           TOTAL OUT =      522851.3066             TOTAL OUT =        3869.8329

            IN - OUT =          -1.3574              IN - OUT =       8.3964E-03

 PERCENT DISCREPANCY =          -0.00     PERCENT DISCREPANCY =           0.00




         TIME SUMMARY AT END OF TIME STEP    1 IN STRESS PERIOD  126
                    SECONDS     MINUTES      HOURS       DAYS        YEARS
                    -----------------------------------------------------------
   TIME STEP LENGTH  86400.      1440.0      24.000      1.0000     2.73785E-03
 STRESS PERIOD TIME  86400.      1440.0      24.000      1.0000     2.73785E-03
         TOTAL TIME 1.08864E+07 1.81440E+05  3024.0      126.00     0.34497    


end timestep


start timestep kper="127" kstp="1" mode="normal"

 #Stressperiod Save Options

 BEGIN READING OUTPUT CONTROL FOR STRESS PERIOD 127
      ALL TIME STEPS WILL BE SAVED
      ALL TIME STEPS WILL BE SAVED

 END READING OUTPUT CONTROL FOR STRESS PERIOD 127


 PROCESSING STORAGE PERIOD DATA
 END PROCESSING STORAGE PERIOD DATA


 STRESS PERIOD 127 IS TRANSIENT


 REUSING WELS FROM LAST STRESS PERIOD

 REUSING DRNS FROM LAST STRESS PERIOD

 REUSING RIVS FROM LAST STRESS PERIOD

 REUSING RIVS FROM LAST STRESS PERIOD

 REUSING RCHS FROM LAST STRESS PERIOD
 UBDSV06 SAVING              DRN IN MODEL GWF_1            PACKAGE GWF_1           CONNECTED TO MODEL GWF_1            PACKAGE DRN_SYS1         ON UNIT   1019 AT TIME STEP      1, STRESS PERIOD    127
 UBDSV06 SAVING              RIV IN MODEL GWF_1            PACKAGE GWF_1           CONNECTED TO MODEL GWF_1            PACKAGE RIV_SYS1         ON UNIT   1019 AT TIME STEP      1, STRESS PERIOD    127
 UBDSV06 SAVING              RIV IN MODEL GWF_1            PACKAGE GWF_1           CONNECTED TO MODEL GWF_1            PACKAGE RIV_SYS2         ON UNIT   1019 AT TIME STEP      1, STRESS PERIOD    127

 HEAD WILL BE SAVED ON UNIT 1018 AT END OF TIME STEP    1, STRESS PERIOD  127


  VOLUME BUDGET FOR ENTIRE MODEL AT END OF TIME STEP    1, STRESS PERIOD 127
  ---------------------------------------------------------------------------------------------------

     CUMULATIVE VOLUME      L**3       RATES FOR THIS TIME STEP      L**3/T          PACKAGE NAME    
     ------------------                 ------------------------                     ----------------

           IN:                                      IN:
           ---                                      ---
              STO-SS =      127041.6090                STO-SS =         961.1105     STORAGE                          
                 WEL =       95962.5212                   WEL =         713.4593     RIV_CORR                         
                 DRN =           0.0000                   DRN =           0.0000     DRN_SYS1                         
                 RIV =       89453.0859                   RIV =        1350.6977     RIV_SYS1                         
                 RIV =           0.0000                   RIV =           0.0000     RIV_SYS2                         
                 RCH =      213484.1057                   RCH =          66.1051     RCH_MSW                          

            TOTAL IN =      525941.3219              TOTAL IN =        3091.3726

          OUT:                                     OUT:
          ----                                     ----
              STO-SS =       78875.1200                STO-SS =           4.4956     STORAGE                          
                 WEL =      147059.2041                   WEL =         986.0655     RIV_CORR                         
                 DRN =       33930.3454                   DRN =         234.5214     DRN_SYS1                         
                 RIV =      136752.6355                   RIV =         707.0750     RIV_SYS1                         
                 RIV =       91538.1556                   RIV =         635.1666     RIV_SYS2                         
                 RCH =       37787.2291                   RCH =         524.0589     RCH_MSW                          

           TOTAL OUT =      525942.6897             TOTAL OUT =        3091.3831

            IN - OUT =          -1.3679              IN - OUT =      -1.0448E-02

 PERCENT DISCREPANCY =          -0.00     PERCENT DISCREPANCY =          -0.00




         TIME SUMMARY AT END OF TIME STEP    1 IN STRESS PERIOD  127
                    SECONDS     MINUTES      HOURS       DAYS        YEARS
                    -----------------------------------------------------------
   TIME STEP LENGTH  86400.      1440.0      24.000      1.0000     2.73785E-03
 STRESS PERIOD TIME  86400.      1440.0      24.000      1.0000     2.73785E-03
         TOTAL TIME 1.09728E+07 1.82880E+05  3048.0      127.00     0.34771    


end timestep


start timestep kper="128" kstp="1" mode="normal"

 #Stressperiod Save Options

 BEGIN READING OUTPUT CONTROL FOR STRESS PERIOD 128
      ALL TIME STEPS WILL BE SAVED
      ALL TIME STEPS WILL BE SAVED

 END READING OUTPUT CONTROL FOR STRESS PERIOD 128


 PROCESSING STORAGE PERIOD DATA
 END PROCESSING STORAGE PERIOD DATA


 STRESS PERIOD 128 IS TRANSIENT


 REUSING WELS FROM LAST STRESS PERIOD

 REUSING DRNS FROM LAST STRESS PERIOD

 REUSING RIVS FROM LAST STRESS PERIOD

 REUSING RIVS FROM LAST STRESS PERIOD

 REUSING RCHS FROM LAST STRESS PERIOD
 UBDSV06 SAVING              DRN IN MODEL GWF_1            PACKAGE GWF_1           CONNECTED TO MODEL GWF_1            PACKAGE DRN_SYS1         ON UNIT   1019 AT TIME STEP      1, STRESS PERIOD    128
 UBDSV06 SAVING              RIV IN MODEL GWF_1            PACKAGE GWF_1           CONNECTED TO MODEL GWF_1            PACKAGE RIV_SYS1         ON UNIT   1019 AT TIME STEP      1, STRESS PERIOD    128
 UBDSV06 SAVING              RIV IN MODEL GWF_1            PACKAGE GWF_1           CONNECTED TO MODEL GWF_1            PACKAGE RIV_SYS2         ON UNIT   1019 AT TIME STEP      1, STRESS PERIOD    128

 HEAD WILL BE SAVED ON UNIT 1018 AT END OF TIME STEP    1, STRESS PERIOD  128


  VOLUME BUDGET FOR ENTIRE MODEL AT END OF TIME STEP    1, STRESS PERIOD 128
  ---------------------------------------------------------------------------------------------------

     CUMULATIVE VOLUME      L**3       RATES FOR THIS TIME STEP      L**3/T          PACKAGE NAME    
     ------------------                 ------------------------                     ----------------

           IN:                                      IN:
           ---                                      ---
              STO-SS =      127454.1356                STO-SS =         412.5266     STORAGE                          
                 WEL =       97313.2190                   WEL =        1350.6977     RIV_CORR                         
                 DRN =           0.0000                   DRN =           0.0000     DRN_SYS1                         
                 RIV =       90381.7299                   RIV =         928.6440     RIV_SYS1                         
                 RIV =           0.0000                   RIV =           0.0000     RIV_SYS2                         
                 RCH =      213716.3534                   RCH =         232.2477     RCH_MSW                          

            TOTAL IN =      528865.4378              TOTAL IN =        2924.1160

          OUT:                                     OUT:
          ----                                     ----
              STO-SS =       79102.0930                STO-SS =         226.9730     STORAGE                          
                 WEL =      147766.2792                   WEL =         707.0750     RIV_CORR                         
                 DRN =       34164.3403                   DRN =         233.9949     DRN_SYS1                         
                 RIV =      137505.8137                   RIV =         753.1782     RIV_SYS1                         
                 RIV =       92172.0201                   RIV =         633.8645     RIV_SYS2                         
                 RCH =       38156.3009                   RCH =         369.0717     RCH_MSW                          

           TOTAL OUT =      528866.8472             TOTAL OUT =        2924.1574

            IN - OUT =          -1.4093              IN - OUT =      -4.1470E-02

 PERCENT DISCREPANCY =          -0.00     PERCENT DISCREPANCY =          -0.00




         TIME SUMMARY AT END OF TIME STEP    1 IN STRESS PERIOD  128
                    SECONDS     MINUTES      HOURS       DAYS        YEARS
                    -----------------------------------------------------------
   TIME STEP LENGTH  86400.      1440.0      24.000      1.0000     2.73785E-03
 STRESS PERIOD TIME  86400.      1440.0      24.000      1.0000     2.73785E-03
         TOTAL TIME 1.10592E+07 1.84320E+05  3072.0      128.00     0.35044    


end timestep


start timestep kper="129" kstp="1" mode="normal"

 #Stressperiod Save Options

 BEGIN READING OUTPUT CONTROL FOR STRESS PERIOD 129
      ALL TIME STEPS WILL BE SAVED
      ALL TIME STEPS WILL BE SAVED

 END READING OUTPUT CONTROL FOR STRESS PERIOD 129


 PROCESSING STORAGE PERIOD DATA
 END PROCESSING STORAGE PERIOD DATA


 STRESS PERIOD 129 IS TRANSIENT


 REUSING WELS FROM LAST STRESS PERIOD

 REUSING DRNS FROM LAST STRESS PERIOD

 REUSING RIVS FROM LAST STRESS PERIOD

 REUSING RIVS FROM LAST STRESS PERIOD

 REUSING RCHS FROM LAST STRESS PERIOD
 UBDSV06 SAVING              DRN IN MODEL GWF_1            PACKAGE GWF_1           CONNECTED TO MODEL GWF_1            PACKAGE DRN_SYS1         ON UNIT   1019 AT TIME STEP      1, STRESS PERIOD    129
 UBDSV06 SAVING              RIV IN MODEL GWF_1            PACKAGE GWF_1           CONNECTED TO MODEL GWF_1            PACKAGE RIV_SYS1         ON UNIT   1019 AT TIME STEP      1, STRESS PERIOD    129
 UBDSV06 SAVING              RIV IN MODEL GWF_1            PACKAGE GWF_1           CONNECTED TO MODEL GWF_1            PACKAGE RIV_SYS2         ON UNIT   1019 AT TIME STEP      1, STRESS PERIOD    129

 HEAD WILL BE SAVED ON UNIT 1018 AT END OF TIME STEP    1, STRESS PERIOD  129


  VOLUME BUDGET FOR ENTIRE MODEL AT END OF TIME STEP    1, STRESS PERIOD 129
  ---------------------------------------------------------------------------------------------------

     CUMULATIVE VOLUME      L**3       RATES FOR THIS TIME STEP      L**3/T          PACKAGE NAME    
     ------------------                 ------------------------                     ----------------

           IN:                                      IN:
           ---                                      ---
              STO-SS =      128064.3487                STO-SS =         610.2131     STORAGE                          
                 WEL =       98241.8629                   WEL =         928.6440     RIV_CORR                         
                 DRN =           0.0000                   DRN =           0.0000     DRN_SYS1                         
                 RIV =       91577.2378                   RIV =        1195.5080     RIV_SYS1                         
                 RIV =           0.0000                   RIV =           0.0000     RIV_SYS2                         
                 RCH =      213740.6563                   RCH =          24.3029     RCH_MSW                          

            TOTAL IN =      531624.1057              TOTAL IN =        2758.6679

          OUT:                                     OUT:
          ----                                     ----
              STO-SS =       79102.0930                STO-SS =           0.0000     STORAGE                          
                 WEL =      148519.4574                   WEL =         753.1782     RIV_CORR                         
                 DRN =       34397.7891                   DRN =         233.4488     DRN_SYS1                         
                 RIV =      138209.5985                   RIV =         703.7847     RIV_SYS1                         
                 RIV =       92804.4772                   RIV =         632.4571     RIV_SYS2                         
                 RCH =       38592.0826                   RCH =         435.7817     RCH_MSW                          

           TOTAL OUT =      531625.4977             TOTAL OUT =        2758.6506

            IN - OUT =          -1.3920              IN - OUT =       1.7312E-02

 PERCENT DISCREPANCY =          -0.00     PERCENT DISCREPANCY =           0.00




         TIME SUMMARY AT END OF TIME STEP    1 IN STRESS PERIOD  129
                    SECONDS     MINUTES      HOURS       DAYS        YEARS
                    -----------------------------------------------------------
   TIME STEP LENGTH  86400.      1440.0      24.000      1.0000     2.73785E-03
 STRESS PERIOD TIME  86400.      1440.0      24.000      1.0000     2.73785E-03
         TOTAL TIME 1.11456E+07 1.85760E+05  3096.0      129.00     0.35318    


end timestep


start timestep kper="130" kstp="1" mode="normal"

 #Stressperiod Save Options

 BEGIN READING OUTPUT CONTROL FOR STRESS PERIOD 130
      ALL TIME STEPS WILL BE SAVED
      ALL TIME STEPS WILL BE SAVED

 END READING OUTPUT CONTROL FOR STRESS PERIOD 130


 PROCESSING STORAGE PERIOD DATA
 END PROCESSING STORAGE PERIOD DATA


 STRESS PERIOD 130 IS TRANSIENT


 REUSING WELS FROM LAST STRESS PERIOD

 REUSING DRNS FROM LAST STRESS PERIOD

 REUSING RIVS FROM LAST STRESS PERIOD

 REUSING RIVS FROM LAST STRESS PERIOD

 REUSING RCHS FROM LAST STRESS PERIOD
 UBDSV06 SAVING              DRN IN MODEL GWF_1            PACKAGE GWF_1           CONNECTED TO MODEL GWF_1            PACKAGE DRN_SYS1         ON UNIT   1019 AT TIME STEP      1, STRESS PERIOD    130
 UBDSV06 SAVING              RIV IN MODEL GWF_1            PACKAGE GWF_1           CONNECTED TO MODEL GWF_1            PACKAGE RIV_SYS1         ON UNIT   1019 AT TIME STEP      1, STRESS PERIOD    130
 UBDSV06 SAVING              RIV IN MODEL GWF_1            PACKAGE GWF_1           CONNECTED TO MODEL GWF_1            PACKAGE RIV_SYS2         ON UNIT   1019 AT TIME STEP      1, STRESS PERIOD    130

 HEAD WILL BE SAVED ON UNIT 1018 AT END OF TIME STEP    1, STRESS PERIOD  130


  VOLUME BUDGET FOR ENTIRE MODEL AT END OF TIME STEP    1, STRESS PERIOD 130
  ---------------------------------------------------------------------------------------------------

     CUMULATIVE VOLUME      L**3       RATES FOR THIS TIME STEP      L**3/T          PACKAGE NAME    
     ------------------                 ------------------------                     ----------------

           IN:                                      IN:
           ---                                      ---
              STO-SS =      128572.7889                STO-SS =         508.4402     STORAGE                          
                 WEL =       99437.3709                   WEL =        1195.5080     RIV_CORR                         
                 DRN =           0.0000                   DRN =           0.0000     DRN_SYS1                         
                 RIV =       92717.5321                   RIV =        1140.2943     RIV_SYS1                         
                 RIV =           0.0000                   RIV =           0.0000     RIV_SYS2                         
                 RCH =      213750.9292                   RCH =          10.2729     RCH_MSW                          

            TOTAL IN =      534478.6211              TOTAL IN =        2854.5154

          OUT:                                     OUT:
          ----                                     ----
              STO-SS =       79116.6962                STO-SS =          14.6032     STORAGE                          
                 WEL =      149223.2421                   WEL =         703.7847     RIV_CORR                         
                 DRN =       34630.6388                   DRN =         232.8498     DRN_SYS1                         
                 RIV =      138909.9973                   RIV =         700.3989     RIV_SYS1                         
                 RIV =       93435.3898                   RIV =         630.9126     RIV_SYS2                         
                 RCH =       39164.0133                   RCH =         571.9307     RCH_MSW                          

           TOTAL OUT =      534479.9776             TOTAL OUT =        2854.4799

            IN - OUT =          -1.3566              IN - OUT =       3.5465E-02

 PERCENT DISCREPANCY =          -0.00     PERCENT DISCREPANCY =           0.00




         TIME SUMMARY AT END OF TIME STEP    1 IN STRESS PERIOD  130
                    SECONDS     MINUTES      HOURS       DAYS        YEARS
                    -----------------------------------------------------------
   TIME STEP LENGTH  86400.      1440.0      24.000      1.0000     2.73785E-03
 STRESS PERIOD TIME  86400.      1440.0      24.000      1.0000     2.73785E-03
         TOTAL TIME 1.12320E+07 1.87200E+05  3120.0      130.00     0.35592    


end timestep


start timestep kper="131" kstp="1" mode="normal"

 #Stressperiod Save Options

 BEGIN READING OUTPUT CONTROL FOR STRESS PERIOD 131
      ALL TIME STEPS WILL BE SAVED
      ALL TIME STEPS WILL BE SAVED

 END READING OUTPUT CONTROL FOR STRESS PERIOD 131


 PROCESSING STORAGE PERIOD DATA
 END PROCESSING STORAGE PERIOD DATA


 STRESS PERIOD 131 IS TRANSIENT


 REUSING WELS FROM LAST STRESS PERIOD

 REUSING DRNS FROM LAST STRESS PERIOD

 REUSING RIVS FROM LAST STRESS PERIOD

 REUSING RIVS FROM LAST STRESS PERIOD

 REUSING RCHS FROM LAST STRESS PERIOD
 UBDSV06 SAVING              DRN IN MODEL GWF_1            PACKAGE GWF_1           CONNECTED TO MODEL GWF_1            PACKAGE DRN_SYS1         ON UNIT   1019 AT TIME STEP      1, STRESS PERIOD    131
 UBDSV06 SAVING              RIV IN MODEL GWF_1            PACKAGE GWF_1           CONNECTED TO MODEL GWF_1            PACKAGE RIV_SYS1         ON UNIT   1019 AT TIME STEP      1, STRESS PERIOD    131
 UBDSV06 SAVING              RIV IN MODEL GWF_1            PACKAGE GWF_1           CONNECTED TO MODEL GWF_1            PACKAGE RIV_SYS2         ON UNIT   1019 AT TIME STEP      1, STRESS PERIOD    131

 HEAD WILL BE SAVED ON UNIT 1018 AT END OF TIME STEP    1, STRESS PERIOD  131


  VOLUME BUDGET FOR ENTIRE MODEL AT END OF TIME STEP    1, STRESS PERIOD 131
  ---------------------------------------------------------------------------------------------------

     CUMULATIVE VOLUME      L**3       RATES FOR THIS TIME STEP      L**3/T          PACKAGE NAME    
     ------------------                 ------------------------                     ----------------

           IN:                                      IN:
           ---                                      ---
              STO-SS =      129302.0378                STO-SS =         729.2489     STORAGE                          
                 WEL =      100577.6652                   WEL =        1140.2943     RIV_CORR                         
                 DRN =           0.0000                   DRN =           0.0000     DRN_SYS1                         
                 RIV =       94047.4322                   RIV =        1329.9000     RIV_SYS1                         
                 RIV =           0.0000                   RIV =           0.0000     RIV_SYS2                         
                 RCH =      213755.6070                   RCH =           4.6779     RCH_MSW                          

            TOTAL IN =      537682.7422              TOTAL IN =        3204.1211

          OUT:                                     OUT:
          ----                                     ----
              STO-SS =       79116.6962                STO-SS =           0.0000     STORAGE                          
                 WEL =      149923.6410                   WEL =         700.3989     RIV_CORR                         
                 DRN =       34862.7588                   DRN =         232.1200     DRN_SYS1                         
                 RIV =      139603.9773                   RIV =         693.9800     RIV_SYS1                         
                 RIV =       94064.4290                   RIV =         629.0392     RIV_SYS2                         
                 RCH =       40112.6030                   RCH =         948.5897     RCH_MSW                          

           TOTAL OUT =      537684.1054             TOTAL OUT =        3204.1278

            IN - OUT =          -1.3632              IN - OUT =      -6.6338E-03

 PERCENT DISCREPANCY =          -0.00     PERCENT DISCREPANCY =          -0.00




         TIME SUMMARY AT END OF TIME STEP    1 IN STRESS PERIOD  131
                    SECONDS     MINUTES      HOURS       DAYS        YEARS
                    -----------------------------------------------------------
   TIME STEP LENGTH  86400.      1440.0      24.000      1.0000     2.73785E-03
 STRESS PERIOD TIME  86400.      1440.0      24.000      1.0000     2.73785E-03
         TOTAL TIME 1.13184E+07 1.88640E+05  3144.0      131.00     0.35866    


end timestep


start timestep kper="132" kstp="1" mode="normal"

 #Stressperiod Save Options

 BEGIN READING OUTPUT CONTROL FOR STRESS PERIOD 132
      ALL TIME STEPS WILL BE SAVED
      ALL TIME STEPS WILL BE SAVED

 END READING OUTPUT CONTROL FOR STRESS PERIOD 132


 PROCESSING STORAGE PERIOD DATA
 END PROCESSING STORAGE PERIOD DATA


 STRESS PERIOD 132 IS TRANSIENT


 REUSING WELS FROM LAST STRESS PERIOD

 REUSING DRNS FROM LAST STRESS PERIOD

 REUSING RIVS FROM LAST STRESS PERIOD

 REUSING RIVS FROM LAST STRESS PERIOD

 REUSING RCHS FROM LAST STRESS PERIOD
 UBDSV06 SAVING              DRN IN MODEL GWF_1            PACKAGE GWF_1           CONNECTED TO MODEL GWF_1            PACKAGE DRN_SYS1         ON UNIT   1019 AT TIME STEP      1, STRESS PERIOD    132
 UBDSV06 SAVING              RIV IN MODEL GWF_1            PACKAGE GWF_1           CONNECTED TO MODEL GWF_1            PACKAGE RIV_SYS1         ON UNIT   1019 AT TIME STEP      1, STRESS PERIOD    132
 UBDSV06 SAVING              RIV IN MODEL GWF_1            PACKAGE GWF_1           CONNECTED TO MODEL GWF_1            PACKAGE RIV_SYS2         ON UNIT   1019 AT TIME STEP      1, STRESS PERIOD    132

 HEAD WILL BE SAVED ON UNIT 1018 AT END OF TIME STEP    1, STRESS PERIOD  132


  VOLUME BUDGET FOR ENTIRE MODEL AT END OF TIME STEP    1, STRESS PERIOD 132
  ---------------------------------------------------------------------------------------------------

     CUMULATIVE VOLUME      L**3       RATES FOR THIS TIME STEP      L**3/T          PACKAGE NAME    
     ------------------                 ------------------------                     ----------------

           IN:                                      IN:
           ---                                      ---
              STO-SS =      129964.8015                STO-SS =         662.7637     STORAGE                          
                 WEL =      101907.5652                   WEL =        1329.9000     RIV_CORR                         
                 DRN =           0.0000                   DRN =           0.0000     DRN_SYS1                         
                 RIV =       95383.2704                   RIV =        1335.8383     RIV_SYS1                         
                 RIV =           0.0000                   RIV =           0.0000     RIV_SYS2                         
                 RCH =      213758.0291                   RCH =           2.4220     RCH_MSW                          

            TOTAL IN =      541013.6663              TOTAL IN =        3330.9240

          OUT:                                     OUT:
          ----                                     ----
              STO-SS =       79119.0949                STO-SS =           2.3987     STORAGE                          
                 WEL =      150617.6210                   WEL =         693.9800     RIV_CORR                         
                 DRN =       35094.0529                   DRN =         231.2941     DRN_SYS1                         
                 RIV =      140294.1103                   RIV =         690.1330     RIV_SYS1                         
                 RIV =       94691.3650                   RIV =         626.9359     RIV_SYS2                         
                 RCH =       41198.8623                   RCH =        1086.2593     RCH_MSW                          

           TOTAL OUT =      541015.1063             TOTAL OUT =        3331.0009

            IN - OUT =          -1.4400              IN - OUT =      -7.6862E-02

 PERCENT DISCREPANCY =          -0.00     PERCENT DISCREPANCY =          -0.00




         TIME SUMMARY AT END OF TIME STEP    1 IN STRESS PERIOD  132
                    SECONDS     MINUTES      HOURS       DAYS        YEARS
                    -----------------------------------------------------------
   TIME STEP LENGTH  86400.      1440.0      24.000      1.0000     2.73785E-03
 STRESS PERIOD TIME  86400.      1440.0      24.000      1.0000     2.73785E-03
         TOTAL TIME 1.14048E+07 1.90080E+05  3168.0      132.00     0.36140    


end timestep


start timestep kper="133" kstp="1" mode="normal"

 #Stressperiod Save Options

 BEGIN READING OUTPUT CONTROL FOR STRESS PERIOD 133
      ALL TIME STEPS WILL BE SAVED
      ALL TIME STEPS WILL BE SAVED

 END READING OUTPUT CONTROL FOR STRESS PERIOD 133


 PROCESSING STORAGE PERIOD DATA
 END PROCESSING STORAGE PERIOD DATA


 STRESS PERIOD 133 IS TRANSIENT


 REUSING WELS FROM LAST STRESS PERIOD

 REUSING DRNS FROM LAST STRESS PERIOD

 REUSING RIVS FROM LAST STRESS PERIOD

 REUSING RIVS FROM LAST STRESS PERIOD

 REUSING RCHS FROM LAST STRESS PERIOD
 UBDSV06 SAVING              DRN IN MODEL GWF_1            PACKAGE GWF_1           CONNECTED TO MODEL GWF_1            PACKAGE DRN_SYS1         ON UNIT   1019 AT TIME STEP      1, STRESS PERIOD    133
 UBDSV06 SAVING              RIV IN MODEL GWF_1            PACKAGE GWF_1           CONNECTED TO MODEL GWF_1            PACKAGE RIV_SYS1         ON UNIT   1019 AT TIME STEP      1, STRESS PERIOD    133
 UBDSV06 SAVING              RIV IN MODEL GWF_1            PACKAGE GWF_1           CONNECTED TO MODEL GWF_1            PACKAGE RIV_SYS2         ON UNIT   1019 AT TIME STEP      1, STRESS PERIOD    133

 HEAD WILL BE SAVED ON UNIT 1018 AT END OF TIME STEP    1, STRESS PERIOD  133


  VOLUME BUDGET FOR ENTIRE MODEL AT END OF TIME STEP    1, STRESS PERIOD 133
  ---------------------------------------------------------------------------------------------------

     CUMULATIVE VOLUME      L**3       RATES FOR THIS TIME STEP      L**3/T          PACKAGE NAME    
     ------------------                 ------------------------                     ----------------

           IN:                                      IN:
           ---                                      ---
              STO-SS =      130621.7250                STO-SS =         656.9234     STORAGE                          
                 WEL =      103243.4035                   WEL =        1335.8383     RIV_CORR                         
                 DRN =           0.0000                   DRN =           0.0000     DRN_SYS1                         
                 RIV =       96759.5936                   RIV =        1376.3232     RIV_SYS1                         
                 RIV =           0.0000                   RIV =           0.0000     RIV_SYS2                         
                 RCH =      213760.0027                   RCH =           1.9736     RCH_MSW                          

            TOTAL IN =      544384.7248              TOTAL IN =        3371.0585

          OUT:                                     OUT:
          ----                                     ----
              STO-SS =       79119.0949                STO-SS =           0.0000     STORAGE                          
                 WEL =      151307.7539                   WEL =         690.1330     RIV_CORR                         
                 DRN =       35324.4780                   DRN =         230.4252     DRN_SYS1                         
                 RIV =      140980.4219                   RIV =         686.3116     RIV_SYS1                         
                 RIV =       95316.0887                   RIV =         624.7238     RIV_SYS2                         
                 RCH =       42338.3931                   RCH =        1139.5308     RCH_MSW                          

           TOTAL OUT =      544386.2306             TOTAL OUT =        3371.1242

            IN - OUT =          -1.5058              IN - OUT =      -6.5741E-02

 PERCENT DISCREPANCY =          -0.00     PERCENT DISCREPANCY =          -0.00




         TIME SUMMARY AT END OF TIME STEP    1 IN STRESS PERIOD  133
                    SECONDS     MINUTES      HOURS       DAYS        YEARS
                    -----------------------------------------------------------
   TIME STEP LENGTH  86400.      1440.0      24.000      1.0000     2.73785E-03
 STRESS PERIOD TIME  86400.      1440.0      24.000      1.0000     2.73785E-03
         TOTAL TIME 1.14912E+07 1.91520E+05  3192.0      133.00     0.36413    


end timestep


start timestep kper="134" kstp="1" mode="normal"

 #Stressperiod Save Options

 BEGIN READING OUTPUT CONTROL FOR STRESS PERIOD 134
      ALL TIME STEPS WILL BE SAVED
      ALL TIME STEPS WILL BE SAVED

 END READING OUTPUT CONTROL FOR STRESS PERIOD 134


 PROCESSING STORAGE PERIOD DATA
 END PROCESSING STORAGE PERIOD DATA


 STRESS PERIOD 134 IS TRANSIENT


 REUSING WELS FROM LAST STRESS PERIOD

 REUSING DRNS FROM LAST STRESS PERIOD

 REUSING RIVS FROM LAST STRESS PERIOD

 REUSING RIVS FROM LAST STRESS PERIOD

 REUSING RCHS FROM LAST STRESS PERIOD
 UBDSV06 SAVING              DRN IN MODEL GWF_1            PACKAGE GWF_1           CONNECTED TO MODEL GWF_1            PACKAGE DRN_SYS1         ON UNIT   1019 AT TIME STEP      1, STRESS PERIOD    134
 UBDSV06 SAVING              RIV IN MODEL GWF_1            PACKAGE GWF_1           CONNECTED TO MODEL GWF_1            PACKAGE RIV_SYS1         ON UNIT   1019 AT TIME STEP      1, STRESS PERIOD    134
 UBDSV06 SAVING              RIV IN MODEL GWF_1            PACKAGE GWF_1           CONNECTED TO MODEL GWF_1            PACKAGE RIV_SYS2         ON UNIT   1019 AT TIME STEP      1, STRESS PERIOD    134

 HEAD WILL BE SAVED ON UNIT 1018 AT END OF TIME STEP    1, STRESS PERIOD  134


  VOLUME BUDGET FOR ENTIRE MODEL AT END OF TIME STEP    1, STRESS PERIOD 134
  ---------------------------------------------------------------------------------------------------

     CUMULATIVE VOLUME      L**3       RATES FOR THIS TIME STEP      L**3/T          PACKAGE NAME    
     ------------------                 ------------------------                     ----------------

           IN:                                      IN:
           ---                                      ---
              STO-SS =      131191.4707                STO-SS =         569.7457     STORAGE                          
                 WEL =      104619.7267                   WEL =        1376.3232     RIV_CORR                         
                 DRN =           0.0000                   DRN =           0.0000     DRN_SYS1                         
                 RIV =       98096.1982                   RIV =        1336.6046     RIV_SYS1                         
                 RIV =           0.0000                   RIV =           0.0000     RIV_SYS2                         
                 RCH =      213761.6365                   RCH =           1.6338     RCH_MSW                          

            TOTAL IN =      547669.0320              TOTAL IN =        3284.3073

          OUT:                                     OUT:
          ----                                     ----
              STO-SS =       79131.9849                STO-SS =          12.8899     STORAGE                          
                 WEL =      151994.0655                   WEL =         686.3116     RIV_CORR                         
                 DRN =       35554.0451                   DRN =         229.5670     DRN_SYS1                         
                 RIV =      141663.3987                   RIV =         682.9769     RIV_SYS1                         
                 RIV =       95938.6452                   RIV =         622.5565     RIV_SYS2                         
                 RCH =       43388.4653                   RCH =        1050.0722     RCH_MSW                          

           TOTAL OUT =      547670.6047             TOTAL OUT =        3284.3741

            IN - OUT =          -1.5726              IN - OUT =      -6.6860E-02

 PERCENT DISCREPANCY =          -0.00     PERCENT DISCREPANCY =          -0.00




         TIME SUMMARY AT END OF TIME STEP    1 IN STRESS PERIOD  134
                    SECONDS     MINUTES      HOURS       DAYS        YEARS
                    -----------------------------------------------------------
   TIME STEP LENGTH  86400.      1440.0      24.000      1.0000     2.73785E-03
 STRESS PERIOD TIME  86400.      1440.0      24.000      1.0000     2.73785E-03
         TOTAL TIME 1.15776E+07 1.92960E+05  3216.0      134.00     0.36687    


end timestep


start timestep kper="135" kstp="1" mode="normal"

 #Stressperiod Save Options

 BEGIN READING OUTPUT CONTROL FOR STRESS PERIOD 135
      ALL TIME STEPS WILL BE SAVED
      ALL TIME STEPS WILL BE SAVED

 END READING OUTPUT CONTROL FOR STRESS PERIOD 135


 PROCESSING STORAGE PERIOD DATA
 END PROCESSING STORAGE PERIOD DATA


 STRESS PERIOD 135 IS TRANSIENT


 REUSING WELS FROM LAST STRESS PERIOD

 REUSING DRNS FROM LAST STRESS PERIOD

 REUSING RIVS FROM LAST STRESS PERIOD

 REUSING RIVS FROM LAST STRESS PERIOD

 REUSING RCHS FROM LAST STRESS PERIOD
 UBDSV06 SAVING              DRN IN MODEL GWF_1            PACKAGE GWF_1           CONNECTED TO MODEL GWF_1            PACKAGE DRN_SYS1         ON UNIT   1019 AT TIME STEP      1, STRESS PERIOD    135
 UBDSV06 SAVING              RIV IN MODEL GWF_1            PACKAGE GWF_1           CONNECTED TO MODEL GWF_1            PACKAGE RIV_SYS1         ON UNIT   1019 AT TIME STEP      1, STRESS PERIOD    135
 UBDSV06 SAVING              RIV IN MODEL GWF_1            PACKAGE GWF_1           CONNECTED TO MODEL GWF_1            PACKAGE RIV_SYS2         ON UNIT   1019 AT TIME STEP      1, STRESS PERIOD    135

 HEAD WILL BE SAVED ON UNIT 1018 AT END OF TIME STEP    1, STRESS PERIOD  135


  VOLUME BUDGET FOR ENTIRE MODEL AT END OF TIME STEP    1, STRESS PERIOD 135
  ---------------------------------------------------------------------------------------------------

     CUMULATIVE VOLUME      L**3       RATES FOR THIS TIME STEP      L**3/T          PACKAGE NAME    
     ------------------                 ------------------------                     ----------------

           IN:                                      IN:
           ---                                      ---
              STO-SS =      131630.6724                STO-SS =         439.2017     STORAGE                          
                 WEL =      105956.3313                   WEL =        1336.6046     RIV_CORR                         
                 DRN =           0.0000                   DRN =           0.0000     DRN_SYS1                         
                 RIV =       99255.0253                   RIV =        1158.8271     RIV_SYS1                         
                 RIV =           0.0000                   RIV =           0.0000     RIV_SYS2                         
                 RCH =      213890.2006                   RCH =         128.5641     RCH_MSW                          

            TOTAL IN =      550732.2296              TOTAL IN =        3063.1975

          OUT:                                     OUT:
          ----                                     ----
              STO-SS =       79268.8931                STO-SS =         136.9082     STORAGE                          
                 WEL =      152677.0424                   WEL =         682.9769     RIV_CORR                         
                 DRN =       35782.8529                   DRN =         228.8078     DRN_SYS1                         
                 RIV =      142349.5483                   RIV =         686.1496     RIV_SYS1                         
                 RIV =       96559.3620                   RIV =         620.7168     RIV_SYS2                         
                 RCH =       44096.0970                   RCH =         707.6317     RCH_MSW                          

           TOTAL OUT =      550733.7956             TOTAL OUT =        3063.1909

            IN - OUT =          -1.5660              IN - OUT =       6.6068E-03

 PERCENT DISCREPANCY =          -0.00     PERCENT DISCREPANCY =           0.00




         TIME SUMMARY AT END OF TIME STEP    1 IN STRESS PERIOD  135
                    SECONDS     MINUTES      HOURS       DAYS        YEARS
                    -----------------------------------------------------------
   TIME STEP LENGTH  86400.      1440.0      24.000      1.0000     2.73785E-03
 STRESS PERIOD TIME  86400.      1440.0      24.000      1.0000     2.73785E-03
         TOTAL TIME 1.16640E+07 1.94400E+05  3240.0      135.00     0.36961    


end timestep


start timestep kper="136" kstp="1" mode="normal"

 #Stressperiod Save Options

 BEGIN READING OUTPUT CONTROL FOR STRESS PERIOD 136
      ALL TIME STEPS WILL BE SAVED
      ALL TIME STEPS WILL BE SAVED

 END READING OUTPUT CONTROL FOR STRESS PERIOD 136


 PROCESSING STORAGE PERIOD DATA
 END PROCESSING STORAGE PERIOD DATA


 STRESS PERIOD 136 IS TRANSIENT


 REUSING WELS FROM LAST STRESS PERIOD

 REUSING DRNS FROM LAST STRESS PERIOD

 REUSING RIVS FROM LAST STRESS PERIOD

 REUSING RIVS FROM LAST STRESS PERIOD

 REUSING RCHS FROM LAST STRESS PERIOD
 UBDSV06 SAVING              DRN IN MODEL GWF_1            PACKAGE GWF_1           CONNECTED TO MODEL GWF_1            PACKAGE DRN_SYS1         ON UNIT   1019 AT TIME STEP      1, STRESS PERIOD    136
 UBDSV06 SAVING              RIV IN MODEL GWF_1            PACKAGE GWF_1           CONNECTED TO MODEL GWF_1            PACKAGE RIV_SYS1         ON UNIT   1019 AT TIME STEP      1, STRESS PERIOD    136
 UBDSV06 SAVING              RIV IN MODEL GWF_1            PACKAGE GWF_1           CONNECTED TO MODEL GWF_1            PACKAGE RIV_SYS2         ON UNIT   1019 AT TIME STEP      1, STRESS PERIOD    136

 HEAD WILL BE SAVED ON UNIT 1018 AT END OF TIME STEP    1, STRESS PERIOD  136


  VOLUME BUDGET FOR ENTIRE MODEL AT END OF TIME STEP    1, STRESS PERIOD 136
  ---------------------------------------------------------------------------------------------------

     CUMULATIVE VOLUME      L**3       RATES FOR THIS TIME STEP      L**3/T          PACKAGE NAME    
     ------------------                 ------------------------                     ----------------

           IN:                                      IN:
           ---                                      ---
              STO-SS =      132117.2721                STO-SS =         486.5998     STORAGE                          
                 WEL =      107115.1584                   WEL =        1158.8271     RIV_CORR                         
                 DRN =           0.0000                   DRN =           0.0000     DRN_SYS1                         
                 RIV =      100571.2276                   RIV =        1316.2023     RIV_SYS1                         
                 RIV =           0.0000                   RIV =           0.0000     RIV_SYS2                         
                 RCH =      213898.0086                   RCH =           7.8080     RCH_MSW                          

            TOTAL IN =      553701.6667              TOTAL IN =        2969.4372

          OUT:                                     OUT:
          ----                                     ----
              STO-SS =       79269.2160                STO-SS =           0.3229     STORAGE                          
                 WEL =      153363.1919                   WEL =         686.1496     RIV_CORR                         
                 DRN =       36010.9688                   DRN =         228.1159     DRN_SYS1                         
                 RIV =      143027.4019                   RIV =         677.8536     RIV_SYS1                         
                 RIV =       97178.4101                   RIV =         619.0481     RIV_SYS2                         
                 RCH =       44854.0493                   RCH =         757.9523     RCH_MSW                          

           TOTAL OUT =      553703.2380             TOTAL OUT =        2969.4424

            IN - OUT =          -1.5712              IN - OUT =      -5.2048E-03

 PERCENT DISCREPANCY =          -0.00     PERCENT DISCREPANCY =          -0.00




         TIME SUMMARY AT END OF TIME STEP    1 IN STRESS PERIOD  136
                    SECONDS     MINUTES      HOURS       DAYS        YEARS
                    -----------------------------------------------------------
   TIME STEP LENGTH  86400.      1440.0      24.000      1.0000     2.73785E-03
 STRESS PERIOD TIME  86400.      1440.0      24.000      1.0000     2.73785E-03
         TOTAL TIME 1.17504E+07 1.95840E+05  3264.0      136.00     0.37235    


end timestep


start timestep kper="137" kstp="1" mode="normal"

 #Stressperiod Save Options

 BEGIN READING OUTPUT CONTROL FOR STRESS PERIOD 137
      ALL TIME STEPS WILL BE SAVED
      ALL TIME STEPS WILL BE SAVED

 END READING OUTPUT CONTROL FOR STRESS PERIOD 137


 PROCESSING STORAGE PERIOD DATA
 END PROCESSING STORAGE PERIOD DATA


 STRESS PERIOD 137 IS TRANSIENT


 REUSING WELS FROM LAST STRESS PERIOD

 REUSING DRNS FROM LAST STRESS PERIOD

 REUSING RIVS FROM LAST STRESS PERIOD

 REUSING RIVS FROM LAST STRESS PERIOD

 REUSING RCHS FROM LAST STRESS PERIOD
 UBDSV06 SAVING              DRN IN MODEL GWF_1            PACKAGE GWF_1           CONNECTED TO MODEL GWF_1            PACKAGE DRN_SYS1         ON UNIT   1019 AT TIME STEP      1, STRESS PERIOD    137
 UBDSV06 SAVING              RIV IN MODEL GWF_1            PACKAGE GWF_1           CONNECTED TO MODEL GWF_1            PACKAGE RIV_SYS1         ON UNIT   1019 AT TIME STEP      1, STRESS PERIOD    137
 UBDSV06 SAVING              RIV IN MODEL GWF_1            PACKAGE GWF_1           CONNECTED TO MODEL GWF_1            PACKAGE RIV_SYS2         ON UNIT   1019 AT TIME STEP      1, STRESS PERIOD    137

 HEAD WILL BE SAVED ON UNIT 1018 AT END OF TIME STEP    1, STRESS PERIOD  137


  VOLUME BUDGET FOR ENTIRE MODEL AT END OF TIME STEP    1, STRESS PERIOD 137
  ---------------------------------------------------------------------------------------------------

     CUMULATIVE VOLUME      L**3       RATES FOR THIS TIME STEP      L**3/T          PACKAGE NAME    
     ------------------                 ------------------------                     ----------------

           IN:                                      IN:
           ---                                      ---
              STO-SS =      132398.4298                STO-SS =         281.1577     STORAGE                          
                 WEL =      108431.3606                   WEL =        1316.2023     RIV_CORR                         
                 DRN =           0.0000                   DRN =           0.0000     DRN_SYS1                         
                 RIV =      101396.0330                   RIV =         824.8054     RIV_SYS1                         
                 RIV =           0.0000                   RIV =           0.0000     RIV_SYS2                         
                 RCH =      215026.1946                   RCH =        1128.1860     RCH_MSW                          

            TOTAL IN =      557252.0181              TOTAL IN =        3550.3513

          OUT:                                     OUT:
          ----                                     ----
              STO-SS =       80005.6772                STO-SS =         736.4612     STORAGE                          
                 WEL =      154041.0455                   WEL =         677.8536     RIV_CORR                         
                 DRN =       36238.7893                   DRN =         227.8205     DRN_SYS1                         
                 RIV =      143890.5675                   RIV =         863.1656     RIV_SYS1                         
                 RIV =       97796.8777                   RIV =         618.4676     RIV_SYS2                         
                 RCH =       45280.6309                   RCH =         426.5817     RCH_MSW                          

           TOTAL OUT =      557253.5882             TOTAL OUT =        3550.3502

            IN - OUT =          -1.5701              IN - OUT =       1.1136E-03

 PERCENT DISCREPANCY =          -0.00     PERCENT DISCREPANCY =           0.00




         TIME SUMMARY AT END OF TIME STEP    1 IN STRESS PERIOD  137
                    SECONDS     MINUTES      HOURS       DAYS        YEARS
                    -----------------------------------------------------------
   TIME STEP LENGTH  86400.      1440.0      24.000      1.0000     2.73785E-03
 STRESS PERIOD TIME  86400.      1440.0      24.000      1.0000     2.73785E-03
         TOTAL TIME 1.18368E+07 1.97280E+05  3288.0      137.00     0.37509    


end timestep


start timestep kper="138" kstp="1" mode="normal"

 #Stressperiod Save Options

 BEGIN READING OUTPUT CONTROL FOR STRESS PERIOD 138
      ALL TIME STEPS WILL BE SAVED
      ALL TIME STEPS WILL BE SAVED

 END READING OUTPUT CONTROL FOR STRESS PERIOD 138


 PROCESSING STORAGE PERIOD DATA
 END PROCESSING STORAGE PERIOD DATA


 STRESS PERIOD 138 IS TRANSIENT


 REUSING WELS FROM LAST STRESS PERIOD

 REUSING DRNS FROM LAST STRESS PERIOD

 REUSING RIVS FROM LAST STRESS PERIOD

 REUSING RIVS FROM LAST STRESS PERIOD

 REUSING RCHS FROM LAST STRESS PERIOD
 UBDSV06 SAVING              DRN IN MODEL GWF_1            PACKAGE GWF_1           CONNECTED TO MODEL GWF_1            PACKAGE DRN_SYS1         ON UNIT   1019 AT TIME STEP      1, STRESS PERIOD    138
 UBDSV06 SAVING              RIV IN MODEL GWF_1            PACKAGE GWF_1           CONNECTED TO MODEL GWF_1            PACKAGE RIV_SYS1         ON UNIT   1019 AT TIME STEP      1, STRESS PERIOD    138
 UBDSV06 SAVING              RIV IN MODEL GWF_1            PACKAGE GWF_1           CONNECTED TO MODEL GWF_1            PACKAGE RIV_SYS2         ON UNIT   1019 AT TIME STEP      1, STRESS PERIOD    138

 HEAD WILL BE SAVED ON UNIT 1018 AT END OF TIME STEP    1, STRESS PERIOD  138


  VOLUME BUDGET FOR ENTIRE MODEL AT END OF TIME STEP    1, STRESS PERIOD 138
  ---------------------------------------------------------------------------------------------------

     CUMULATIVE VOLUME      L**3       RATES FOR THIS TIME STEP      L**3/T          PACKAGE NAME    
     ------------------                 ------------------------                     ----------------

           IN:                                      IN:
           ---                                      ---
              STO-SS =      133175.8063                STO-SS =         777.3765     STORAGE                          
                 WEL =      109256.1660                   WEL =         824.8054     RIV_CORR                         
                 DRN =           0.0000                   DRN =           0.0000     DRN_SYS1                         
                 RIV =      102844.6425                   RIV =        1448.6095     RIV_SYS1                         
                 RIV =           0.0000                   RIV =           0.0000     RIV_SYS2                         
                 RCH =      215035.0985                   RCH =           8.9039     RCH_MSW                          

            TOTAL IN =      560311.7134              TOTAL IN =        3059.6953

          OUT:                                     OUT:
          ----                                     ----
              STO-SS =       80009.4831                STO-SS =           3.8059     STORAGE                          
                 WEL =      154904.2112                   WEL =         863.1656     RIV_CORR                         
                 DRN =       36466.2890                   DRN =         227.4996     DRN_SYS1                         
                 RIV =      144566.6675                   RIV =         676.1000     RIV_SYS1                         
                 RIV =       98414.5851                   RIV =         617.7074     RIV_SYS2                         
                 RCH =       45952.0622                   RCH =         671.4312     RCH_MSW                          

           TOTAL OUT =      560313.2980             TOTAL OUT =        3059.7098

            IN - OUT =          -1.5847              IN - OUT =      -1.4523E-02

 PERCENT DISCREPANCY =          -0.00     PERCENT DISCREPANCY =          -0.00




         TIME SUMMARY AT END OF TIME STEP    1 IN STRESS PERIOD  138
                    SECONDS     MINUTES      HOURS       DAYS        YEARS
                    -----------------------------------------------------------
   TIME STEP LENGTH  86400.      1440.0      24.000      1.0000     2.73785E-03
 STRESS PERIOD TIME  86400.      1440.0      24.000      1.0000     2.73785E-03
         TOTAL TIME 1.19232E+07 1.98720E+05  3312.0      138.00     0.37782    


end timestep


start timestep kper="139" kstp="1" mode="normal"

 #Stressperiod Save Options

 BEGIN READING OUTPUT CONTROL FOR STRESS PERIOD 139
      ALL TIME STEPS WILL BE SAVED
      ALL TIME STEPS WILL BE SAVED

 END READING OUTPUT CONTROL FOR STRESS PERIOD 139


 PROCESSING STORAGE PERIOD DATA
 END PROCESSING STORAGE PERIOD DATA


 STRESS PERIOD 139 IS TRANSIENT


 REUSING WELS FROM LAST STRESS PERIOD

 REUSING DRNS FROM LAST STRESS PERIOD

 REUSING RIVS FROM LAST STRESS PERIOD

 REUSING RIVS FROM LAST STRESS PERIOD

 REUSING RCHS FROM LAST STRESS PERIOD
 UBDSV06 SAVING              DRN IN MODEL GWF_1            PACKAGE GWF_1           CONNECTED TO MODEL GWF_1            PACKAGE DRN_SYS1         ON UNIT   1019 AT TIME STEP      1, STRESS PERIOD    139
 UBDSV06 SAVING              RIV IN MODEL GWF_1            PACKAGE GWF_1           CONNECTED TO MODEL GWF_1            PACKAGE RIV_SYS1         ON UNIT   1019 AT TIME STEP      1, STRESS PERIOD    139
 UBDSV06 SAVING              RIV IN MODEL GWF_1            PACKAGE GWF_1           CONNECTED TO MODEL GWF_1            PACKAGE RIV_SYS2         ON UNIT   1019 AT TIME STEP      1, STRESS PERIOD    139

 HEAD WILL BE SAVED ON UNIT 1018 AT END OF TIME STEP    1, STRESS PERIOD  139


  VOLUME BUDGET FOR ENTIRE MODEL AT END OF TIME STEP    1, STRESS PERIOD 139
  ---------------------------------------------------------------------------------------------------

     CUMULATIVE VOLUME      L**3       RATES FOR THIS TIME STEP      L**3/T          PACKAGE NAME    
     ------------------                 ------------------------                     ----------------

           IN:                                      IN:
           ---                                      ---
              STO-SS =      133548.2664                STO-SS =         372.4601     STORAGE                          
                 WEL =      110704.7756                   WEL =        1448.6095     RIV_CORR                         
                 DRN =           0.0000                   DRN =           0.0000     DRN_SYS1                         
                 RIV =      104062.8025                   RIV =        1218.1600     RIV_SYS1                         
                 RIV =           0.0000                   RIV =           0.0000     RIV_SYS2                         
                 RCH =      215035.2780                   RCH =           0.1795     RCH_MSW                          

            TOTAL IN =      563351.1225              TOTAL IN =        3039.4091

          OUT:                                     OUT:
          ----                                     ----
              STO-SS =       80077.3328                STO-SS =          67.8497     STORAGE                          
                 WEL =      155580.3112                   WEL =         676.1000     RIV_CORR                         
                 DRN =       36693.4099                   DRN =         227.1210     DRN_SYS1                         
                 RIV =      145241.6200                   RIV =         674.9525     RIV_SYS1                         
                 RIV =       99031.3485                   RIV =         616.7634     RIV_SYS2                         
                 RCH =       46728.6750                   RCH =         776.6128     RCH_MSW                          

           TOTAL OUT =      563352.6974             TOTAL OUT =        3039.3994

            IN - OUT =          -1.5749              IN - OUT =       9.7147E-03

 PERCENT DISCREPANCY =          -0.00     PERCENT DISCREPANCY =           0.00




         TIME SUMMARY AT END OF TIME STEP    1 IN STRESS PERIOD  139
                    SECONDS     MINUTES      HOURS       DAYS        YEARS
                    -----------------------------------------------------------
   TIME STEP LENGTH  86400.      1440.0      24.000      1.0000     2.73785E-03
 STRESS PERIOD TIME  86400.      1440.0      24.000      1.0000     2.73785E-03
         TOTAL TIME 1.20096E+07 2.00160E+05  3336.0      139.00     0.38056    


end timestep


start timestep kper="140" kstp="1" mode="normal"

 #Stressperiod Save Options

 BEGIN READING OUTPUT CONTROL FOR STRESS PERIOD 140
      ALL TIME STEPS WILL BE SAVED
      ALL TIME STEPS WILL BE SAVED

 END READING OUTPUT CONTROL FOR STRESS PERIOD 140


 PROCESSING STORAGE PERIOD DATA
 END PROCESSING STORAGE PERIOD DATA


 STRESS PERIOD 140 IS TRANSIENT


 REUSING WELS FROM LAST STRESS PERIOD

 REUSING DRNS FROM LAST STRESS PERIOD

 REUSING RIVS FROM LAST STRESS PERIOD

 REUSING RIVS FROM LAST STRESS PERIOD

 REUSING RCHS FROM LAST STRESS PERIOD
 UBDSV06 SAVING              DRN IN MODEL GWF_1            PACKAGE GWF_1           CONNECTED TO MODEL GWF_1            PACKAGE DRN_SYS1         ON UNIT   1019 AT TIME STEP      1, STRESS PERIOD    140
 UBDSV06 SAVING              RIV IN MODEL GWF_1            PACKAGE GWF_1           CONNECTED TO MODEL GWF_1            PACKAGE RIV_SYS1         ON UNIT   1019 AT TIME STEP      1, STRESS PERIOD    140
 UBDSV06 SAVING              RIV IN MODEL GWF_1            PACKAGE GWF_1           CONNECTED TO MODEL GWF_1            PACKAGE RIV_SYS2         ON UNIT   1019 AT TIME STEP      1, STRESS PERIOD    140

 HEAD WILL BE SAVED ON UNIT 1018 AT END OF TIME STEP    1, STRESS PERIOD  140


  VOLUME BUDGET FOR ENTIRE MODEL AT END OF TIME STEP    1, STRESS PERIOD 140
  ---------------------------------------------------------------------------------------------------

     CUMULATIVE VOLUME      L**3       RATES FOR THIS TIME STEP      L**3/T          PACKAGE NAME    
     ------------------                 ------------------------                     ----------------

           IN:                                      IN:
           ---                                      ---
              STO-SS =      133670.5477                STO-SS =         122.2813     STORAGE                          
                 WEL =      111922.9355                   WEL =        1218.1600     RIV_CORR                         
                 DRN =           0.0000                   DRN =           0.0000     DRN_SYS1                         
                 RIV =      104619.5891                   RIV =         556.7866     RIV_SYS1                         
                 RIV =           0.0000                   RIV =           0.0000     RIV_SYS2                         
                 RCH =      218183.3144                   RCH =        3148.0364     RCH_MSW                          

            TOTAL IN =      568396.3868              TOTAL IN =        5045.2643

          OUT:                                     OUT:
          ----                                     ----
              STO-SS =       82073.2915                STO-SS =        1995.9587     STORAGE                          
                 WEL =      156255.2637                   WEL =         674.9525     RIV_CORR                         
                 DRN =       36921.4825                   DRN =         228.0726     DRN_SYS1                         
                 RIV =      146533.2740                   RIV =        1291.6540     RIV_SYS1                         
                 RIV =       99650.4411                   RIV =         619.0926     RIV_SYS2                         
                 RCH =       46964.1910                   RCH =         235.5160     RCH_MSW                          

           TOTAL OUT =      568397.9439             TOTAL OUT =        5045.2464

            IN - OUT =          -1.5571              IN - OUT =       1.7865E-02

 PERCENT DISCREPANCY =          -0.00     PERCENT DISCREPANCY =           0.00




         TIME SUMMARY AT END OF TIME STEP    1 IN STRESS PERIOD  140
                    SECONDS     MINUTES      HOURS       DAYS        YEARS
                    -----------------------------------------------------------
   TIME STEP LENGTH  86400.      1440.0      24.000      1.0000     2.73785E-03
 STRESS PERIOD TIME  86400.      1440.0      24.000      1.0000     2.73785E-03
         TOTAL TIME 1.20960E+07 2.01600E+05  3360.0      140.00     0.38330    


end timestep


start timestep kper="141" kstp="1" mode="normal"

 #Stressperiod Save Options

 BEGIN READING OUTPUT CONTROL FOR STRESS PERIOD 141
      ALL TIME STEPS WILL BE SAVED
      ALL TIME STEPS WILL BE SAVED

 END READING OUTPUT CONTROL FOR STRESS PERIOD 141


 PROCESSING STORAGE PERIOD DATA
 END PROCESSING STORAGE PERIOD DATA


 STRESS PERIOD 141 IS TRANSIENT


 REUSING WELS FROM LAST STRESS PERIOD

 REUSING DRNS FROM LAST STRESS PERIOD

 REUSING RIVS FROM LAST STRESS PERIOD

 REUSING RIVS FROM LAST STRESS PERIOD

 REUSING RCHS FROM LAST STRESS PERIOD
 UBDSV06 SAVING              DRN IN MODEL GWF_1            PACKAGE GWF_1           CONNECTED TO MODEL GWF_1            PACKAGE DRN_SYS1         ON UNIT   1019 AT TIME STEP      1, STRESS PERIOD    141
 UBDSV06 SAVING              RIV IN MODEL GWF_1            PACKAGE GWF_1           CONNECTED TO MODEL GWF_1            PACKAGE RIV_SYS1         ON UNIT   1019 AT TIME STEP      1, STRESS PERIOD    141
 UBDSV06 SAVING              RIV IN MODEL GWF_1            PACKAGE GWF_1           CONNECTED TO MODEL GWF_1            PACKAGE RIV_SYS2         ON UNIT   1019 AT TIME STEP      1, STRESS PERIOD    141

 HEAD WILL BE SAVED ON UNIT 1018 AT END OF TIME STEP    1, STRESS PERIOD  141


  VOLUME BUDGET FOR ENTIRE MODEL AT END OF TIME STEP    1, STRESS PERIOD 141
  ---------------------------------------------------------------------------------------------------

     CUMULATIVE VOLUME      L**3       RATES FOR THIS TIME STEP      L**3/T          PACKAGE NAME    
     ------------------                 ------------------------                     ----------------

           IN:                                      IN:
           ---                                      ---
              STO-SS =      134042.3822                STO-SS =         371.8345     STORAGE                          
                 WEL =      112479.7221                   WEL =         556.7866     RIV_CORR                         
                 DRN =           0.0000                   DRN =           0.0000     DRN_SYS1                         
                 RIV =      105480.8210                   RIV =         861.2319     RIV_SYS1                         
                 RIV =           0.0000                   RIV =           0.0000     RIV_SYS2                         
                 RCH =      220298.5170                   RCH =        2115.2026     RCH_MSW                          

            TOTAL IN =      572301.4424              TOTAL IN =        3905.0556

          OUT:                                     OUT:
          ----                                     ----
              STO-SS =       82928.9807                STO-SS =         855.6892     STORAGE                          
                 WEL =      157546.9177                   WEL =        1291.6540     RIV_CORR                         
                 DRN =       37151.4525                   DRN =         229.9699     DRN_SYS1                         
                 RIV =      147277.0350                   RIV =         743.7610     RIV_SYS1                         
                 RIV =      100273.7508                   RIV =         623.3097     RIV_SYS2                         
                 RCH =       47124.8053                   RCH =         160.6143     RCH_MSW                          

           TOTAL OUT =      572302.9421             TOTAL OUT =        3904.9982

            IN - OUT =          -1.4997              IN - OUT =       5.7414E-02

 PERCENT DISCREPANCY =          -0.00     PERCENT DISCREPANCY =           0.00




         TIME SUMMARY AT END OF TIME STEP    1 IN STRESS PERIOD  141
                    SECONDS     MINUTES      HOURS       DAYS        YEARS
                    -----------------------------------------------------------
   TIME STEP LENGTH  86400.      1440.0      24.000      1.0000     2.73785E-03
 STRESS PERIOD TIME  86400.      1440.0      24.000      1.0000     2.73785E-03
         TOTAL TIME 1.21824E+07 2.03040E+05  3384.0      141.00     0.38604    


end timestep


start timestep kper="142" kstp="1" mode="normal"

 #Stressperiod Save Options

 BEGIN READING OUTPUT CONTROL FOR STRESS PERIOD 142
      ALL TIME STEPS WILL BE SAVED
      ALL TIME STEPS WILL BE SAVED

 END READING OUTPUT CONTROL FOR STRESS PERIOD 142


 PROCESSING STORAGE PERIOD DATA
 END PROCESSING STORAGE PERIOD DATA


 STRESS PERIOD 142 IS TRANSIENT


 REUSING WELS FROM LAST STRESS PERIOD

 REUSING DRNS FROM LAST STRESS PERIOD

 REUSING RIVS FROM LAST STRESS PERIOD

 REUSING RIVS FROM LAST STRESS PERIOD

 REUSING RCHS FROM LAST STRESS PERIOD
 UBDSV06 SAVING              DRN IN MODEL GWF_1            PACKAGE GWF_1           CONNECTED TO MODEL GWF_1            PACKAGE DRN_SYS1         ON UNIT   1019 AT TIME STEP      1, STRESS PERIOD    142
 UBDSV06 SAVING              RIV IN MODEL GWF_1            PACKAGE GWF_1           CONNECTED TO MODEL GWF_1            PACKAGE RIV_SYS1         ON UNIT   1019 AT TIME STEP      1, STRESS PERIOD    142
 UBDSV06 SAVING              RIV IN MODEL GWF_1            PACKAGE GWF_1           CONNECTED TO MODEL GWF_1            PACKAGE RIV_SYS2         ON UNIT   1019 AT TIME STEP      1, STRESS PERIOD    142

 HEAD WILL BE SAVED ON UNIT 1018 AT END OF TIME STEP    1, STRESS PERIOD  142


  VOLUME BUDGET FOR ENTIRE MODEL AT END OF TIME STEP    1, STRESS PERIOD 142
  ---------------------------------------------------------------------------------------------------

     CUMULATIVE VOLUME      L**3       RATES FOR THIS TIME STEP      L**3/T          PACKAGE NAME    
     ------------------                 ------------------------                     ----------------

           IN:                                      IN:
           ---                                      ---
              STO-SS =      134084.1668                STO-SS =          41.7845     STORAGE                          
                 WEL =      113340.9541                   WEL =         861.2319     RIV_CORR                         
                 DRN =           0.0000                   DRN =           0.0000     DRN_SYS1                         
                 RIV =      106166.6559                   RIV =         685.8349     RIV_SYS1                         
                 RIV =           0.0000                   RIV =           0.0000     RIV_SYS2                         
                 RCH =      221969.8165                   RCH =        1671.2995     RCH_MSW                          

            TOTAL IN =      575561.5933              TOTAL IN =        3260.1509

          OUT:                                     OUT:
          ----                                     ----
              STO-SS =       83648.0867                STO-SS =         719.1060     STORAGE                          
                 WEL =      158290.6787                   WEL =         743.7610     RIV_CORR                         
                 DRN =       37383.4055                   DRN =         231.9530     DRN_SYS1                         
                 RIV =      148147.4172                   RIV =         870.3821     RIV_SYS1                         
                 RIV =      100901.4172                   RIV =         627.6664     RIV_SYS2                         
                 RCH =       47192.0670                   RCH =          67.2617     RCH_MSW                          

           TOTAL OUT =      575563.0723             TOTAL OUT =        3260.1302

            IN - OUT =          -1.4790              IN - OUT =       2.0656E-02

 PERCENT DISCREPANCY =          -0.00     PERCENT DISCREPANCY =           0.00




         TIME SUMMARY AT END OF TIME STEP    1 IN STRESS PERIOD  142
                    SECONDS     MINUTES      HOURS       DAYS        YEARS
                    -----------------------------------------------------------
   TIME STEP LENGTH  86400.      1440.0      24.000      1.0000     2.73785E-03
 STRESS PERIOD TIME  86400.      1440.0      24.000      1.0000     2.73785E-03
         TOTAL TIME 1.22688E+07 2.04480E+05  3408.0      142.00     0.38877    


end timestep


start timestep kper="143" kstp="1" mode="normal"

 #Stressperiod Save Options

 BEGIN READING OUTPUT CONTROL FOR STRESS PERIOD 143
      ALL TIME STEPS WILL BE SAVED
      ALL TIME STEPS WILL BE SAVED

 END READING OUTPUT CONTROL FOR STRESS PERIOD 143


 PROCESSING STORAGE PERIOD DATA
 END PROCESSING STORAGE PERIOD DATA


 STRESS PERIOD 143 IS TRANSIENT


 REUSING WELS FROM LAST STRESS PERIOD

 REUSING DRNS FROM LAST STRESS PERIOD

 REUSING RIVS FROM LAST STRESS PERIOD

 REUSING RIVS FROM LAST STRESS PERIOD

 REUSING RCHS FROM LAST STRESS PERIOD
 UBDSV06 SAVING              DRN IN MODEL GWF_1            PACKAGE GWF_1           CONNECTED TO MODEL GWF_1            PACKAGE DRN_SYS1         ON UNIT   1019 AT TIME STEP      1, STRESS PERIOD    143
 UBDSV06 SAVING              RIV IN MODEL GWF_1            PACKAGE GWF_1           CONNECTED TO MODEL GWF_1            PACKAGE RIV_SYS1         ON UNIT   1019 AT TIME STEP      1, STRESS PERIOD    143
 UBDSV06 SAVING              RIV IN MODEL GWF_1            PACKAGE GWF_1           CONNECTED TO MODEL GWF_1            PACKAGE RIV_SYS2         ON UNIT   1019 AT TIME STEP      1, STRESS PERIOD    143

 HEAD WILL BE SAVED ON UNIT 1018 AT END OF TIME STEP    1, STRESS PERIOD  143


  VOLUME BUDGET FOR ENTIRE MODEL AT END OF TIME STEP    1, STRESS PERIOD 143
  ---------------------------------------------------------------------------------------------------

     CUMULATIVE VOLUME      L**3       RATES FOR THIS TIME STEP      L**3/T          PACKAGE NAME    
     ------------------                 ------------------------                     ----------------

           IN:                                      IN:
           ---                                      ---
              STO-SS =      134646.1425                STO-SS =         561.9757     STORAGE                          
                 WEL =      114026.7890                   WEL =         685.8349     RIV_CORR                         
                 DRN =           0.0000                   DRN =           0.0000     DRN_SYS1                         
                 RIV =      107216.1839                   RIV =        1049.5279     RIV_SYS1                         
                 RIV =           0.0000                   RIV =           0.0000     RIV_SYS2                         
                 RCH =      222665.1451                   RCH =         695.3285     RCH_MSW                          

            TOTAL IN =      578554.2604              TOTAL IN =        2992.6671

          OUT:                                     OUT:
          ----                                     ----
              STO-SS =       83996.4030                STO-SS =         348.3162     STORAGE                          
                 WEL =      159161.0608                   WEL =         870.3821     RIV_CORR                         
                 DRN =       37616.3759                   DRN =         232.9704     DRN_SYS1                         
                 RIV =      148873.2608                   RIV =         725.8436     RIV_SYS1                         
                 RIV =      101531.2623                   RIV =         629.8451     RIV_SYS2                         
                 RCH =       47377.4804                   RCH =         185.4134     RCH_MSW                          

           TOTAL OUT =      578555.8432             TOTAL OUT =        2992.7708

            IN - OUT =          -1.5828              IN - OUT =          -0.1038

 PERCENT DISCREPANCY =          -0.00     PERCENT DISCREPANCY =          -0.00




         TIME SUMMARY AT END OF TIME STEP    1 IN STRESS PERIOD  143
                    SECONDS     MINUTES      HOURS       DAYS        YEARS
                    -----------------------------------------------------------
   TIME STEP LENGTH  86400.      1440.0      24.000      1.0000     2.73785E-03
 STRESS PERIOD TIME  86400.      1440.0      24.000      1.0000     2.73785E-03
         TOTAL TIME 1.23552E+07 2.05920E+05  3432.0      143.00     0.39151    


end timestep


start timestep kper="144" kstp="1" mode="normal"

 #Stressperiod Save Options

 BEGIN READING OUTPUT CONTROL FOR STRESS PERIOD 144
      ALL TIME STEPS WILL BE SAVED
      ALL TIME STEPS WILL BE SAVED

 END READING OUTPUT CONTROL FOR STRESS PERIOD 144


 PROCESSING STORAGE PERIOD DATA
 END PROCESSING STORAGE PERIOD DATA


 STRESS PERIOD 144 IS TRANSIENT


 REUSING WELS FROM LAST STRESS PERIOD

 REUSING DRNS FROM LAST STRESS PERIOD

 REUSING RIVS FROM LAST STRESS PERIOD

 REUSING RIVS FROM LAST STRESS PERIOD

 REUSING RCHS FROM LAST STRESS PERIOD
 UBDSV06 SAVING              DRN IN MODEL GWF_1            PACKAGE GWF_1           CONNECTED TO MODEL GWF_1            PACKAGE DRN_SYS1         ON UNIT   1019 AT TIME STEP      1, STRESS PERIOD    144
 UBDSV06 SAVING              RIV IN MODEL GWF_1            PACKAGE GWF_1           CONNECTED TO MODEL GWF_1            PACKAGE RIV_SYS1         ON UNIT   1019 AT TIME STEP      1, STRESS PERIOD    144
 UBDSV06 SAVING              RIV IN MODEL GWF_1            PACKAGE GWF_1           CONNECTED TO MODEL GWF_1            PACKAGE RIV_SYS2         ON UNIT   1019 AT TIME STEP      1, STRESS PERIOD    144

 HEAD WILL BE SAVED ON UNIT 1018 AT END OF TIME STEP    1, STRESS PERIOD  144


  VOLUME BUDGET FOR ENTIRE MODEL AT END OF TIME STEP    1, STRESS PERIOD 144
  ---------------------------------------------------------------------------------------------------

     CUMULATIVE VOLUME      L**3       RATES FOR THIS TIME STEP      L**3/T          PACKAGE NAME    
     ------------------                 ------------------------                     ----------------

           IN:                                      IN:
           ---                                      ---
              STO-SS =      135017.4039                STO-SS =         371.2614     STORAGE                          
                 WEL =      115076.3169                   WEL =        1049.5279     RIV_CORR                         
                 DRN =           0.0000                   DRN =           0.0000     DRN_SYS1                         
                 RIV =      108209.4146                   RIV =         993.2307     RIV_SYS1                         
                 RIV =           0.0000                   RIV =           0.0000     RIV_SYS2                         
                 RCH =      223041.2270                   RCH =         376.0819     RCH_MSW                          

            TOTAL IN =      581344.3623              TOTAL IN =        2790.1019

          OUT:                                     OUT:
          ----                                     ----
              STO-SS =       84200.9040                STO-SS =         204.5010     STORAGE                          
                 WEL =      159886.9044                   WEL =         725.8436     RIV_CORR                         
                 DRN =       37849.5697                   DRN =         233.1938     DRN_SYS1                         
                 RIV =      149595.0298                   RIV =         721.7691     RIV_SYS1                         
                 RIV =      102161.4555                   RIV =         630.1932     RIV_SYS2                         
                 RCH =       47652.0963                   RCH =         274.6160     RCH_MSW                          

           TOTAL OUT =      581345.9598             TOTAL OUT =        2790.1166

            IN - OUT =          -1.5974              IN - OUT =      -1.4676E-02

 PERCENT DISCREPANCY =          -0.00     PERCENT DISCREPANCY =          -0.00




         TIME SUMMARY AT END OF TIME STEP    1 IN STRESS PERIOD  144
                    SECONDS     MINUTES      HOURS       DAYS        YEARS
                    -----------------------------------------------------------
   TIME STEP LENGTH  86400.      1440.0      24.000      1.0000     2.73785E-03
 STRESS PERIOD TIME  86400.      1440.0      24.000      1.0000     2.73785E-03
         TOTAL TIME 1.24416E+07 2.07360E+05  3456.0      144.00     0.39425    


end timestep


start timestep kper="145" kstp="1" mode="normal"

 #Stressperiod Save Options

 BEGIN READING OUTPUT CONTROL FOR STRESS PERIOD 145
      ALL TIME STEPS WILL BE SAVED
      ALL TIME STEPS WILL BE SAVED

 END READING OUTPUT CONTROL FOR STRESS PERIOD 145


 PROCESSING STORAGE PERIOD DATA
 END PROCESSING STORAGE PERIOD DATA


 STRESS PERIOD 145 IS TRANSIENT


 REUSING WELS FROM LAST STRESS PERIOD

 REUSING DRNS FROM LAST STRESS PERIOD

 REUSING RIVS FROM LAST STRESS PERIOD

 REUSING RIVS FROM LAST STRESS PERIOD

 REUSING RCHS FROM LAST STRESS PERIOD
 UBDSV06 SAVING              DRN IN MODEL GWF_1            PACKAGE GWF_1           CONNECTED TO MODEL GWF_1            PACKAGE DRN_SYS1         ON UNIT   1019 AT TIME STEP      1, STRESS PERIOD    145
 UBDSV06 SAVING              RIV IN MODEL GWF_1            PACKAGE GWF_1           CONNECTED TO MODEL GWF_1            PACKAGE RIV_SYS1         ON UNIT   1019 AT TIME STEP      1, STRESS PERIOD    145
 UBDSV06 SAVING              RIV IN MODEL GWF_1            PACKAGE GWF_1           CONNECTED TO MODEL GWF_1            PACKAGE RIV_SYS2         ON UNIT   1019 AT TIME STEP      1, STRESS PERIOD    145

 HEAD WILL BE SAVED ON UNIT 1018 AT END OF TIME STEP    1, STRESS PERIOD  145


  VOLUME BUDGET FOR ENTIRE MODEL AT END OF TIME STEP    1, STRESS PERIOD 145
  ---------------------------------------------------------------------------------------------------

     CUMULATIVE VOLUME      L**3       RATES FOR THIS TIME STEP      L**3/T          PACKAGE NAME    
     ------------------                 ------------------------                     ----------------

           IN:                                      IN:
           ---                                      ---
              STO-SS =      135034.3152                STO-SS =          16.9113     STORAGE                          
                 WEL =      116069.5476                   WEL =         993.2307     RIV_CORR                         
                 DRN =           0.0000                   DRN =           0.0000     DRN_SYS1                         
                 RIV =      109001.0229                   RIV =         791.6083     RIV_SYS1                         
                 RIV =           0.0000                   RIV =           0.0000     RIV_SYS2                         
                 RCH =      223964.1313                   RCH =         922.9043     RCH_MSW                          

            TOTAL IN =      584069.0169              TOTAL IN =        2724.6546

          OUT:                                     OUT:
          ----                                     ----
              STO-SS =       84552.9678                STO-SS =         352.0639     STORAGE                          
                 WEL =      160608.6735                   WEL =         721.7691     RIV_CORR                         
                 DRN =       38083.0430                   DRN =         233.4733     DRN_SYS1                         
                 RIV =      150362.5553                   RIV =         767.5255     RIV_SYS1                         
                 RIV =      102792.1019                   RIV =         630.6464     RIV_SYS2                         
                 RCH =       47671.2640                   RCH =          19.1676     RCH_MSW                          

           TOTAL OUT =      584070.6055             TOTAL OUT =        2724.6457

            IN - OUT =          -1.5885              IN - OUT =       8.9117E-03

 PERCENT DISCREPANCY =          -0.00     PERCENT DISCREPANCY =           0.00




         TIME SUMMARY AT END OF TIME STEP    1 IN STRESS PERIOD  145
                    SECONDS     MINUTES      HOURS       DAYS        YEARS
                    -----------------------------------------------------------
   TIME STEP LENGTH  86400.      1440.0      24.000      1.0000     2.73785E-03
 STRESS PERIOD TIME  86400.      1440.0      24.000      1.0000     2.73785E-03
         TOTAL TIME 1.25280E+07 2.08800E+05  3480.0      145.00     0.39699    


end timestep


start timestep kper="146" kstp="1" mode="normal"

 #Stressperiod Save Options

 BEGIN READING OUTPUT CONTROL FOR STRESS PERIOD 146
      ALL TIME STEPS WILL BE SAVED
      ALL TIME STEPS WILL BE SAVED

 END READING OUTPUT CONTROL FOR STRESS PERIOD 146


 PROCESSING STORAGE PERIOD DATA
 END PROCESSING STORAGE PERIOD DATA


 STRESS PERIOD 146 IS TRANSIENT


 REUSING WELS FROM LAST STRESS PERIOD

 REUSING DRNS FROM LAST STRESS PERIOD

 REUSING RIVS FROM LAST STRESS PERIOD

 REUSING RIVS FROM LAST STRESS PERIOD

 REUSING RCHS FROM LAST STRESS PERIOD
 UBDSV06 SAVING              DRN IN MODEL GWF_1            PACKAGE GWF_1           CONNECTED TO MODEL GWF_1            PACKAGE DRN_SYS1         ON UNIT   1019 AT TIME STEP      1, STRESS PERIOD    146
 UBDSV06 SAVING              RIV IN MODEL GWF_1            PACKAGE GWF_1           CONNECTED TO MODEL GWF_1            PACKAGE RIV_SYS1         ON UNIT   1019 AT TIME STEP      1, STRESS PERIOD    146
 UBDSV06 SAVING              RIV IN MODEL GWF_1            PACKAGE GWF_1           CONNECTED TO MODEL GWF_1            PACKAGE RIV_SYS2         ON UNIT   1019 AT TIME STEP      1, STRESS PERIOD    146

 HEAD WILL BE SAVED ON UNIT 1018 AT END OF TIME STEP    1, STRESS PERIOD  146


  VOLUME BUDGET FOR ENTIRE MODEL AT END OF TIME STEP    1, STRESS PERIOD 146
  ---------------------------------------------------------------------------------------------------

     CUMULATIVE VOLUME      L**3       RATES FOR THIS TIME STEP      L**3/T          PACKAGE NAME    
     ------------------                 ------------------------                     ----------------

           IN:                                      IN:
           ---                                      ---
              STO-SS =      135271.8017                STO-SS =         237.4865     STORAGE                          
                 WEL =      116861.1559                   WEL =         791.6083     RIV_CORR                         
                 DRN =           0.0000                   DRN =           0.0000     DRN_SYS1                         
                 RIV =      110035.6794                   RIV =        1034.6565     RIV_SYS1                         
                 RIV =           0.0000                   RIV =           0.0000     RIV_SYS2                         
                 RCH =      224421.4879                   RCH =         457.3566     RCH_MSW                          

            TOTAL IN =      586590.1250              TOTAL IN =        2521.1081

          OUT:                                     OUT:
          ----                                     ----
              STO-SS =       84694.6678                STO-SS =         141.6999     STORAGE                          
                 WEL =      161376.1989                   WEL =         767.5255     RIV_CORR                         
                 DRN =       38316.6447                   DRN =         233.6016     DRN_SYS1                         
                 RIV =      151086.1954                   RIV =         723.6401     RIV_SYS1                         
                 RIV =      103422.8485                   RIV =         630.7466     RIV_SYS2                         
                 RCH =       47695.2414                   RCH =          23.9774     RCH_MSW                          

           TOTAL OUT =      586591.7966             TOTAL OUT =        2521.1911

            IN - OUT =          -1.6716              IN - OUT =      -8.3090E-02

 PERCENT DISCREPANCY =          -0.00     PERCENT DISCREPANCY =          -0.00




         TIME SUMMARY AT END OF TIME STEP    1 IN STRESS PERIOD  146
                    SECONDS     MINUTES      HOURS       DAYS        YEARS
                    -----------------------------------------------------------
   TIME STEP LENGTH  86400.      1440.0      24.000      1.0000     2.73785E-03
 STRESS PERIOD TIME  86400.      1440.0      24.000      1.0000     2.73785E-03
         TOTAL TIME 1.26144E+07 2.10240E+05  3504.0      146.00     0.39973    


end timestep


start timestep kper="147" kstp="1" mode="normal"

 #Stressperiod Save Options

 BEGIN READING OUTPUT CONTROL FOR STRESS PERIOD 147
      ALL TIME STEPS WILL BE SAVED
      ALL TIME STEPS WILL BE SAVED

 END READING OUTPUT CONTROL FOR STRESS PERIOD 147


 PROCESSING STORAGE PERIOD DATA
 END PROCESSING STORAGE PERIOD DATA


 STRESS PERIOD 147 IS TRANSIENT


 REUSING WELS FROM LAST STRESS PERIOD

 REUSING DRNS FROM LAST STRESS PERIOD

 REUSING RIVS FROM LAST STRESS PERIOD

 REUSING RIVS FROM LAST STRESS PERIOD

 REUSING RCHS FROM LAST STRESS PERIOD
 UBDSV06 SAVING              DRN IN MODEL GWF_1            PACKAGE GWF_1           CONNECTED TO MODEL GWF_1            PACKAGE DRN_SYS1         ON UNIT   1019 AT TIME STEP      1, STRESS PERIOD    147
 UBDSV06 SAVING              RIV IN MODEL GWF_1            PACKAGE GWF_1           CONNECTED TO MODEL GWF_1            PACKAGE RIV_SYS1         ON UNIT   1019 AT TIME STEP      1, STRESS PERIOD    147
 UBDSV06 SAVING              RIV IN MODEL GWF_1            PACKAGE GWF_1           CONNECTED TO MODEL GWF_1            PACKAGE RIV_SYS2         ON UNIT   1019 AT TIME STEP      1, STRESS PERIOD    147

 HEAD WILL BE SAVED ON UNIT 1018 AT END OF TIME STEP    1, STRESS PERIOD  147


  VOLUME BUDGET FOR ENTIRE MODEL AT END OF TIME STEP    1, STRESS PERIOD 147
  ---------------------------------------------------------------------------------------------------

     CUMULATIVE VOLUME      L**3       RATES FOR THIS TIME STEP      L**3/T          PACKAGE NAME    
     ------------------                 ------------------------                     ----------------

           IN:                                      IN:
           ---                                      ---
              STO-SS =      135480.3651                STO-SS =         208.5634     STORAGE                          
                 WEL =      117895.8125                   WEL =        1034.6565     RIV_CORR                         
                 DRN =           0.0000                   DRN =           0.0000     DRN_SYS1                         
                 RIV =      111064.7408                   RIV =        1029.0613     RIV_SYS1                         
                 RIV =           0.0000                   RIV =           0.0000     RIV_SYS2                         
                 RCH =      224714.2173                   RCH =         292.7294     RCH_MSW                          

            TOTAL IN =      589155.1357              TOTAL IN =        2565.0107

          OUT:                                     OUT:
          ----                                     ----
              STO-SS =       84793.1522                STO-SS =          98.4844     STORAGE                          
                 WEL =      162099.8391                   WEL =         723.6401     RIV_CORR                         
                 DRN =       38550.1782                   DRN =         233.5336     DRN_SYS1                         
                 RIV =      151806.7000                   RIV =         720.5045     RIV_SYS1                         
                 RIV =      104053.2538                   RIV =         630.4053     RIV_SYS2                         
                 RCH =       47853.7938                   RCH =         158.5524     RCH_MSW                          

           TOTAL OUT =      589156.9170             TOTAL OUT =        2565.1204

            IN - OUT =          -1.7813              IN - OUT =          -0.1097

 PERCENT DISCREPANCY =          -0.00     PERCENT DISCREPANCY =          -0.00




         TIME SUMMARY AT END OF TIME STEP    1 IN STRESS PERIOD  147
                    SECONDS     MINUTES      HOURS       DAYS        YEARS
                    -----------------------------------------------------------
   TIME STEP LENGTH  86400.      1440.0      24.000      1.0000     2.73785E-03
 STRESS PERIOD TIME  86400.      1440.0      24.000      1.0000     2.73785E-03
         TOTAL TIME 1.27008E+07 2.11680E+05  3528.0      147.00     0.40246    


end timestep


start timestep kper="148" kstp="1" mode="normal"

 #Stressperiod Save Options

 BEGIN READING OUTPUT CONTROL FOR STRESS PERIOD 148
      ALL TIME STEPS WILL BE SAVED
      ALL TIME STEPS WILL BE SAVED

 END READING OUTPUT CONTROL FOR STRESS PERIOD 148


 PROCESSING STORAGE PERIOD DATA
 END PROCESSING STORAGE PERIOD DATA


 STRESS PERIOD 148 IS TRANSIENT


 REUSING WELS FROM LAST STRESS PERIOD

 REUSING DRNS FROM LAST STRESS PERIOD

 REUSING RIVS FROM LAST STRESS PERIOD

 REUSING RIVS FROM LAST STRESS PERIOD

 REUSING RCHS FROM LAST STRESS PERIOD
 UBDSV06 SAVING              DRN IN MODEL GWF_1            PACKAGE GWF_1           CONNECTED TO MODEL GWF_1            PACKAGE DRN_SYS1         ON UNIT   1019 AT TIME STEP      1, STRESS PERIOD    148
 UBDSV06 SAVING              RIV IN MODEL GWF_1            PACKAGE GWF_1           CONNECTED TO MODEL GWF_1            PACKAGE RIV_SYS1         ON UNIT   1019 AT TIME STEP      1, STRESS PERIOD    148
 UBDSV06 SAVING              RIV IN MODEL GWF_1            PACKAGE GWF_1           CONNECTED TO MODEL GWF_1            PACKAGE RIV_SYS2         ON UNIT   1019 AT TIME STEP      1, STRESS PERIOD    148

 HEAD WILL BE SAVED ON UNIT 1018 AT END OF TIME STEP    1, STRESS PERIOD  148


  VOLUME BUDGET FOR ENTIRE MODEL AT END OF TIME STEP    1, STRESS PERIOD 148
  ---------------------------------------------------------------------------------------------------

     CUMULATIVE VOLUME      L**3       RATES FOR THIS TIME STEP      L**3/T          PACKAGE NAME    
     ------------------                 ------------------------                     ----------------

           IN:                                      IN:
           ---                                      ---
              STO-SS =      135480.3651                STO-SS =           0.0000     STORAGE                          
                 WEL =      118924.8738                   WEL =        1029.0613     RIV_CORR                         
                 DRN =           0.0000                   DRN =           0.0000     DRN_SYS1                         
                 RIV =      111676.3891                   RIV =         611.6483     RIV_SYS1                         
                 RIV =           0.0000                   RIV =           0.0000     RIV_SYS2                         
                 RCH =      226845.7479                   RCH =        2131.5306     RCH_MSW                          

            TOTAL IN =      592927.3759              TOTAL IN =        3772.2402

          OUT:                                     OUT:
          ----                                     ----
              STO-SS =       85977.0909                STO-SS =        1183.9388     STORAGE                          
                 WEL =      162820.3436                   WEL =         720.5045     RIV_CORR                         
                 DRN =       38784.7324                   DRN =         234.5542     DRN_SYS1                         
                 RIV =      152807.2585                   RIV =        1000.5586     RIV_SYS1                         
                 RIV =      104685.9332                   RIV =         632.6793     RIV_SYS2                         
                 RCH =       47853.7938                   RCH =           0.0000     RCH_MSW                          

           TOTAL OUT =      592929.1524             TOTAL OUT =        3772.2354

            IN - OUT =          -1.7765              IN - OUT =       4.8365E-03

 PERCENT DISCREPANCY =          -0.00     PERCENT DISCREPANCY =           0.00




         TIME SUMMARY AT END OF TIME STEP    1 IN STRESS PERIOD  148
                    SECONDS     MINUTES      HOURS       DAYS        YEARS
                    -----------------------------------------------------------
   TIME STEP LENGTH  86400.      1440.0      24.000      1.0000     2.73785E-03
 STRESS PERIOD TIME  86400.      1440.0      24.000      1.0000     2.73785E-03
         TOTAL TIME 1.27872E+07 2.13120E+05  3552.0      148.00     0.40520    


end timestep


start timestep kper="149" kstp="1" mode="normal"

 #Stressperiod Save Options

 BEGIN READING OUTPUT CONTROL FOR STRESS PERIOD 149
      ALL TIME STEPS WILL BE SAVED
      ALL TIME STEPS WILL BE SAVED

 END READING OUTPUT CONTROL FOR STRESS PERIOD 149


 PROCESSING STORAGE PERIOD DATA
 END PROCESSING STORAGE PERIOD DATA


 STRESS PERIOD 149 IS TRANSIENT


 REUSING WELS FROM LAST STRESS PERIOD

 REUSING DRNS FROM LAST STRESS PERIOD

 REUSING RIVS FROM LAST STRESS PERIOD

 REUSING RIVS FROM LAST STRESS PERIOD

 REUSING RCHS FROM LAST STRESS PERIOD
 UBDSV06 SAVING              DRN IN MODEL GWF_1            PACKAGE GWF_1           CONNECTED TO MODEL GWF_1            PACKAGE DRN_SYS1         ON UNIT   1019 AT TIME STEP      1, STRESS PERIOD    149
 UBDSV06 SAVING              RIV IN MODEL GWF_1            PACKAGE GWF_1           CONNECTED TO MODEL GWF_1            PACKAGE RIV_SYS1         ON UNIT   1019 AT TIME STEP      1, STRESS PERIOD    149
 UBDSV06 SAVING              RIV IN MODEL GWF_1            PACKAGE GWF_1           CONNECTED TO MODEL GWF_1            PACKAGE RIV_SYS2         ON UNIT   1019 AT TIME STEP      1, STRESS PERIOD    149

 HEAD WILL BE SAVED ON UNIT 1018 AT END OF TIME STEP    1, STRESS PERIOD  149


  VOLUME BUDGET FOR ENTIRE MODEL AT END OF TIME STEP    1, STRESS PERIOD 149
  ---------------------------------------------------------------------------------------------------

     CUMULATIVE VOLUME      L**3       RATES FOR THIS TIME STEP      L**3/T          PACKAGE NAME    
     ------------------                 ------------------------                     ----------------

           IN:                                      IN:
           ---                                      ---
              STO-SS =      135968.0830                STO-SS =         487.7178     STORAGE                          
                 WEL =      119536.5221                   WEL =         611.6483     RIV_CORR                         
                 DRN =           0.0000                   DRN =           0.0000     DRN_SYS1                         
                 RIV =      112810.5947                   RIV =        1134.2056     RIV_SYS1                         
                 RIV =           0.0000                   RIV =           0.0000     RIV_SYS2                         
                 RCH =      227605.6494                   RCH =         759.9015     RCH_MSW                          

            TOTAL IN =      595920.8492              TOTAL IN =        2993.4732

          OUT:                                     OUT:
          ----                                     ----
              STO-SS =       86256.6832                STO-SS =         279.5923     STORAGE                          
                 WEL =      163820.9022                   WEL =        1000.5586     RIV_CORR                         
                 DRN =       39020.0263                   DRN =         235.2939     DRN_SYS1                         
                 RIV =      153542.8031                   RIV =         735.5445     RIV_SYS1                         
                 RIV =      105320.1120                   RIV =         634.1788     RIV_SYS2                         
                 RCH =       47962.1125                   RCH =         108.3186     RCH_MSW                          

           TOTAL OUT =      595922.6392             TOTAL OUT =        2993.4868

            IN - OUT =          -1.7901              IN - OUT =      -1.3607E-02

 PERCENT DISCREPANCY =          -0.00     PERCENT DISCREPANCY =          -0.00




         TIME SUMMARY AT END OF TIME STEP    1 IN STRESS PERIOD  149
                    SECONDS     MINUTES      HOURS       DAYS        YEARS
                    -----------------------------------------------------------
   TIME STEP LENGTH  86400.      1440.0      24.000      1.0000     2.73785E-03
 STRESS PERIOD TIME  86400.      1440.0      24.000      1.0000     2.73785E-03
         TOTAL TIME 1.28736E+07 2.14560E+05  3576.0      149.00     0.40794    


end timestep


start timestep kper="150" kstp="1" mode="normal"

 #Stressperiod Save Options

 BEGIN READING OUTPUT CONTROL FOR STRESS PERIOD 150
      ALL TIME STEPS WILL BE SAVED
      ALL TIME STEPS WILL BE SAVED

 END READING OUTPUT CONTROL FOR STRESS PERIOD 150


 PROCESSING STORAGE PERIOD DATA
 END PROCESSING STORAGE PERIOD DATA


 STRESS PERIOD 150 IS TRANSIENT


 REUSING WELS FROM LAST STRESS PERIOD

 REUSING DRNS FROM LAST STRESS PERIOD

 REUSING RIVS FROM LAST STRESS PERIOD

 REUSING RIVS FROM LAST STRESS PERIOD

 REUSING RCHS FROM LAST STRESS PERIOD
 UBDSV06 SAVING              DRN IN MODEL GWF_1            PACKAGE GWF_1           CONNECTED TO MODEL GWF_1            PACKAGE DRN_SYS1         ON UNIT   1019 AT TIME STEP      1, STRESS PERIOD    150
 UBDSV06 SAVING              RIV IN MODEL GWF_1            PACKAGE GWF_1           CONNECTED TO MODEL GWF_1            PACKAGE RIV_SYS1         ON UNIT   1019 AT TIME STEP      1, STRESS PERIOD    150
 UBDSV06 SAVING              RIV IN MODEL GWF_1            PACKAGE GWF_1           CONNECTED TO MODEL GWF_1            PACKAGE RIV_SYS2         ON UNIT   1019 AT TIME STEP      1, STRESS PERIOD    150

 HEAD WILL BE SAVED ON UNIT 1018 AT END OF TIME STEP    1, STRESS PERIOD  150


  VOLUME BUDGET FOR ENTIRE MODEL AT END OF TIME STEP    1, STRESS PERIOD 150
  ---------------------------------------------------------------------------------------------------

     CUMULATIVE VOLUME      L**3       RATES FOR THIS TIME STEP      L**3/T          PACKAGE NAME    
     ------------------                 ------------------------                     ----------------

           IN:                                      IN:
           ---                                      ---
              STO-SS =      136238.7166                STO-SS =         270.6336     STORAGE                          
                 WEL =      120670.7277                   WEL =        1134.2056     RIV_CORR                         
                 DRN =           0.0000                   DRN =           0.0000     DRN_SYS1                         
                 RIV =      113817.5853                   RIV =        1006.9907     RIV_SYS1                         
                 RIV =           0.0000                   RIV =           0.0000     RIV_SYS2                         
                 RCH =      228060.6362                   RCH =         454.9868     RCH_MSW                          

            TOTAL IN =      598787.6658              TOTAL IN =        2866.8167

          OUT:                                     OUT:
          ----                                     ----
              STO-SS =       86453.7313                STO-SS =         197.0480     STORAGE                          
                 WEL =      164556.4467                   WEL =         735.5445     RIV_CORR                         
                 DRN =       39255.4943                   DRN =         235.4680     DRN_SYS1                         
                 RIV =      154274.7581                   RIV =         731.9550     RIV_SYS1                         
                 RIV =      105954.5714                   RIV =         634.4594     RIV_SYS2                         
                 RCH =       48294.4571                   RCH =         332.3447     RCH_MSW                          

           TOTAL OUT =      598789.4588             TOTAL OUT =        2866.8196

            IN - OUT =          -1.7930              IN - OUT =      -2.9384E-03

 PERCENT DISCREPANCY =          -0.00     PERCENT DISCREPANCY =          -0.00




         TIME SUMMARY AT END OF TIME STEP    1 IN STRESS PERIOD  150
                    SECONDS     MINUTES      HOURS       DAYS        YEARS
                    -----------------------------------------------------------
   TIME STEP LENGTH  86400.      1440.0      24.000      1.0000     2.73785E-03
 STRESS PERIOD TIME  86400.      1440.0      24.000      1.0000     2.73785E-03
         TOTAL TIME 1.29600E+07 2.16000E+05  3600.0      150.00     0.41068    


end timestep


start timestep kper="151" kstp="1" mode="normal"

 #Stressperiod Save Options

 BEGIN READING OUTPUT CONTROL FOR STRESS PERIOD 151
      ALL TIME STEPS WILL BE SAVED
      ALL TIME STEPS WILL BE SAVED

 END READING OUTPUT CONTROL FOR STRESS PERIOD 151


 PROCESSING STORAGE PERIOD DATA
 END PROCESSING STORAGE PERIOD DATA


 STRESS PERIOD 151 IS TRANSIENT


 REUSING WELS FROM LAST STRESS PERIOD

 REUSING DRNS FROM LAST STRESS PERIOD

 REUSING RIVS FROM LAST STRESS PERIOD

 REUSING RIVS FROM LAST STRESS PERIOD

 REUSING RCHS FROM LAST STRESS PERIOD
 UBDSV06 SAVING              DRN IN MODEL GWF_1            PACKAGE GWF_1           CONNECTED TO MODEL GWF_1            PACKAGE DRN_SYS1         ON UNIT   1019 AT TIME STEP      1, STRESS PERIOD    151
 UBDSV06 SAVING              RIV IN MODEL GWF_1            PACKAGE GWF_1           CONNECTED TO MODEL GWF_1            PACKAGE RIV_SYS1         ON UNIT   1019 AT TIME STEP      1, STRESS PERIOD    151
 UBDSV06 SAVING              RIV IN MODEL GWF_1            PACKAGE GWF_1           CONNECTED TO MODEL GWF_1            PACKAGE RIV_SYS2         ON UNIT   1019 AT TIME STEP      1, STRESS PERIOD    151

 HEAD WILL BE SAVED ON UNIT 1018 AT END OF TIME STEP    1, STRESS PERIOD  151


  VOLUME BUDGET FOR ENTIRE MODEL AT END OF TIME STEP    1, STRESS PERIOD 151
  ---------------------------------------------------------------------------------------------------

     CUMULATIVE VOLUME      L**3       RATES FOR THIS TIME STEP      L**3/T          PACKAGE NAME    
     ------------------                 ------------------------                     ----------------

           IN:                                      IN:
           ---                                      ---
              STO-SS =      136723.7767                STO-SS =         485.0600     STORAGE                          
                 WEL =      121677.7184                   WEL =        1006.9907     RIV_CORR                         
                 DRN =           0.0000                   DRN =           0.0000     DRN_SYS1                         
                 RIV =      115016.2832                   RIV =        1198.6979     RIV_SYS1                         
                 RIV =           0.0000                   RIV =           0.0000     RIV_SYS2                         
                 RCH =      228348.4008                   RCH =         287.7647     RCH_MSW                          

            TOTAL IN =      601766.1791              TOTAL IN =        2978.5133

          OUT:                                     OUT:
          ----                                     ----
              STO-SS =       86537.2600                STO-SS =          83.5287     STORAGE                          
                 WEL =      165288.4017                   WEL =         731.9550     RIV_CORR                         
                 DRN =       39490.6297                   DRN =         235.1354     DRN_SYS1                         
                 RIV =      154997.7528                   RIV =         722.9947     RIV_SYS1                         
                 RIV =      106588.1457                   RIV =         633.5744     RIV_SYS2                         
                 RCH =       48865.8122                   RCH =         571.3551     RCH_MSW                          

           TOTAL OUT =      601768.0021             TOTAL OUT =        2978.5433

            IN - OUT =          -1.8230              IN - OUT =      -3.0050E-02

 PERCENT DISCREPANCY =          -0.00     PERCENT DISCREPANCY =          -0.00




         TIME SUMMARY AT END OF TIME STEP    1 IN STRESS PERIOD  151
                    SECONDS     MINUTES      HOURS       DAYS        YEARS
                    -----------------------------------------------------------
   TIME STEP LENGTH  86400.      1440.0      24.000      1.0000     2.73785E-03
 STRESS PERIOD TIME  86400.      1440.0      24.000      1.0000     2.73785E-03
         TOTAL TIME 1.30464E+07 2.17440E+05  3624.0      151.00     0.41342    


end timestep


start timestep kper="152" kstp="1" mode="normal"

 #Stressperiod Save Options

 BEGIN READING OUTPUT CONTROL FOR STRESS PERIOD 152
      ALL TIME STEPS WILL BE SAVED
      ALL TIME STEPS WILL BE SAVED

 END READING OUTPUT CONTROL FOR STRESS PERIOD 152


 PROCESSING STORAGE PERIOD DATA
 END PROCESSING STORAGE PERIOD DATA


 STRESS PERIOD 152 IS TRANSIENT


 REUSING WELS FROM LAST STRESS PERIOD

 REUSING DRNS FROM LAST STRESS PERIOD

 REUSING RIVS FROM LAST STRESS PERIOD

 REUSING RIVS FROM LAST STRESS PERIOD

 REUSING RCHS FROM LAST STRESS PERIOD
 UBDSV06 SAVING              DRN IN MODEL GWF_1            PACKAGE GWF_1           CONNECTED TO MODEL GWF_1            PACKAGE DRN_SYS1         ON UNIT   1019 AT TIME STEP      1, STRESS PERIOD    152
 UBDSV06 SAVING              RIV IN MODEL GWF_1            PACKAGE GWF_1           CONNECTED TO MODEL GWF_1            PACKAGE RIV_SYS1         ON UNIT   1019 AT TIME STEP      1, STRESS PERIOD    152
 UBDSV06 SAVING              RIV IN MODEL GWF_1            PACKAGE GWF_1           CONNECTED TO MODEL GWF_1            PACKAGE RIV_SYS2         ON UNIT   1019 AT TIME STEP      1, STRESS PERIOD    152

 HEAD WILL BE SAVED ON UNIT 1018 AT END OF TIME STEP    1, STRESS PERIOD  152


  VOLUME BUDGET FOR ENTIRE MODEL AT END OF TIME STEP    1, STRESS PERIOD 152
  ---------------------------------------------------------------------------------------------------

     CUMULATIVE VOLUME      L**3       RATES FOR THIS TIME STEP      L**3/T          PACKAGE NAME    
     ------------------                 ------------------------                     ----------------

           IN:                                      IN:
           ---                                      ---
              STO-SS =      137213.8482                STO-SS =         490.0716     STORAGE                          
                 WEL =      122876.4163                   WEL =        1198.6979     RIV_CORR                         
                 DRN =           0.0000                   DRN =           0.0000     DRN_SYS1                         
                 RIV =      116262.1108                   RIV =        1245.8276     RIV_SYS1                         
                 RIV =           0.0000                   RIV =           0.0000     RIV_SYS2                         
                 RCH =      228528.8836                   RCH =         180.4828     RCH_MSW                          

            TOTAL IN =      604881.2589              TOTAL IN =        3115.0798

          OUT:                                     OUT:
          ----                                     ----
              STO-SS =       86578.2918                STO-SS =          41.0318     STORAGE                          
                 WEL =      166011.3964                   WEL =         722.9947     RIV_CORR                         
                 DRN =       39725.1039                   DRN =         234.4742     DRN_SYS1                         
                 RIV =      155712.5251                   RIV =         714.7723     RIV_SYS1                         
                 RIV =      107220.0718                   RIV =         631.9261     RIV_SYS2                         
                 RCH =       49635.7741                   RCH =         769.9619     RCH_MSW                          

           TOTAL OUT =      604883.1632             TOTAL OUT =        3115.1610

            IN - OUT =          -1.9043              IN - OUT =      -8.1233E-02

 PERCENT DISCREPANCY =          -0.00     PERCENT DISCREPANCY =          -0.00




         TIME SUMMARY AT END OF TIME STEP    1 IN STRESS PERIOD  152
                    SECONDS     MINUTES      HOURS       DAYS        YEARS
                    -----------------------------------------------------------
   TIME STEP LENGTH  86400.      1440.0      24.000      1.0000     2.73785E-03
 STRESS PERIOD TIME  86400.      1440.0      24.000      1.0000     2.73785E-03
         TOTAL TIME 1.31328E+07 2.18880E+05  3648.0      152.00     0.41615    


end timestep


start timestep kper="153" kstp="1" mode="normal"

 #Stressperiod Save Options

 BEGIN READING OUTPUT CONTROL FOR STRESS PERIOD 153
      ALL TIME STEPS WILL BE SAVED
      ALL TIME STEPS WILL BE SAVED

 END READING OUTPUT CONTROL FOR STRESS PERIOD 153


 PROCESSING STORAGE PERIOD DATA
 END PROCESSING STORAGE PERIOD DATA


 STRESS PERIOD 153 IS TRANSIENT


 REUSING WELS FROM LAST STRESS PERIOD

 REUSING DRNS FROM LAST STRESS PERIOD

 REUSING RIVS FROM LAST STRESS PERIOD

 REUSING RIVS FROM LAST STRESS PERIOD

 REUSING RCHS FROM LAST STRESS PERIOD
 UBDSV06 SAVING              DRN IN MODEL GWF_1            PACKAGE GWF_1           CONNECTED TO MODEL GWF_1            PACKAGE DRN_SYS1         ON UNIT   1019 AT TIME STEP      1, STRESS PERIOD    153
 UBDSV06 SAVING              RIV IN MODEL GWF_1            PACKAGE GWF_1           CONNECTED TO MODEL GWF_1            PACKAGE RIV_SYS1         ON UNIT   1019 AT TIME STEP      1, STRESS PERIOD    153
 UBDSV06 SAVING              RIV IN MODEL GWF_1            PACKAGE GWF_1           CONNECTED TO MODEL GWF_1            PACKAGE RIV_SYS2         ON UNIT   1019 AT TIME STEP      1, STRESS PERIOD    153

 HEAD WILL BE SAVED ON UNIT 1018 AT END OF TIME STEP    1, STRESS PERIOD  153


  VOLUME BUDGET FOR ENTIRE MODEL AT END OF TIME STEP    1, STRESS PERIOD 153
  ---------------------------------------------------------------------------------------------------

     CUMULATIVE VOLUME      L**3       RATES FOR THIS TIME STEP      L**3/T          PACKAGE NAME    
     ------------------                 ------------------------                     ----------------

           IN:                                      IN:
           ---                                      ---
              STO-SS =      137319.7943                STO-SS =         105.9461     STORAGE                          
                 WEL =      124122.2438                   WEL =        1245.8276     RIV_CORR                         
                 DRN =           0.0000                   DRN =           0.0000     DRN_SYS1                         
                 RIV =      117076.6558                   RIV =         814.5450     RIV_SYS1                         
                 RIV =           0.0000                   RIV =           0.0000     RIV_SYS2                         
                 RCH =      229238.8589                   RCH =         709.9752     RCH_MSW                          

            TOTAL IN =      607757.5528              TOTAL IN =        2876.2939

          OUT:                                     OUT:
          ----                                     ----
              STO-SS =       86988.4009                STO-SS =         410.1091     STORAGE                          
                 WEL =      166726.1687                   WEL =         714.7723     RIV_CORR                         
                 DRN =       39959.1882                   DRN =         234.0844     DRN_SYS1                         
                 RIV =      156513.8027                   RIV =         801.2776     RIV_SYS1                         
                 RIV =      107851.1866                   RIV =         631.1147     RIV_SYS2                         
                 RCH =       49720.7088                   RCH =          84.9347     RCH_MSW                          

           TOTAL OUT =      607759.4560             TOTAL OUT =        2876.2928

            IN - OUT =          -1.9032              IN - OUT =       1.0600E-03

 PERCENT DISCREPANCY =          -0.00     PERCENT DISCREPANCY =           0.00




         TIME SUMMARY AT END OF TIME STEP    1 IN STRESS PERIOD  153
                    SECONDS     MINUTES      HOURS       DAYS        YEARS
                    -----------------------------------------------------------
   TIME STEP LENGTH  86400.      1440.0      24.000      1.0000     2.73785E-03
 STRESS PERIOD TIME  86400.      1440.0      24.000      1.0000     2.73785E-03
         TOTAL TIME 1.32192E+07 2.20320E+05  3672.0      153.00     0.41889    


end timestep


start timestep kper="154" kstp="1" mode="normal"

 #Stressperiod Save Options

 BEGIN READING OUTPUT CONTROL FOR STRESS PERIOD 154
      ALL TIME STEPS WILL BE SAVED
      ALL TIME STEPS WILL BE SAVED

 END READING OUTPUT CONTROL FOR STRESS PERIOD 154


 PROCESSING STORAGE PERIOD DATA
 END PROCESSING STORAGE PERIOD DATA


 STRESS PERIOD 154 IS TRANSIENT


 REUSING WELS FROM LAST STRESS PERIOD

 REUSING DRNS FROM LAST STRESS PERIOD

 REUSING RIVS FROM LAST STRESS PERIOD

 REUSING RIVS FROM LAST STRESS PERIOD

 REUSING RCHS FROM LAST STRESS PERIOD
 UBDSV06 SAVING              DRN IN MODEL GWF_1            PACKAGE GWF_1           CONNECTED TO MODEL GWF_1            PACKAGE DRN_SYS1         ON UNIT   1019 AT TIME STEP      1, STRESS PERIOD    154
 UBDSV06 SAVING              RIV IN MODEL GWF_1            PACKAGE GWF_1           CONNECTED TO MODEL GWF_1            PACKAGE RIV_SYS1         ON UNIT   1019 AT TIME STEP      1, STRESS PERIOD    154
 UBDSV06 SAVING              RIV IN MODEL GWF_1            PACKAGE GWF_1           CONNECTED TO MODEL GWF_1            PACKAGE RIV_SYS2         ON UNIT   1019 AT TIME STEP      1, STRESS PERIOD    154

 HEAD WILL BE SAVED ON UNIT 1018 AT END OF TIME STEP    1, STRESS PERIOD  154


  VOLUME BUDGET FOR ENTIRE MODEL AT END OF TIME STEP    1, STRESS PERIOD 154
  ---------------------------------------------------------------------------------------------------

     CUMULATIVE VOLUME      L**3       RATES FOR THIS TIME STEP      L**3/T          PACKAGE NAME    
     ------------------                 ------------------------                     ----------------

           IN:                                      IN:
           ---                                      ---
              STO-SS =      137329.1496                STO-SS =           9.3553     STORAGE                          
                 WEL =      124936.7888                   WEL =         814.5450     RIV_CORR                         
                 DRN =           0.0000                   DRN =           0.0000     DRN_SYS1                         
                 RIV =      117852.4480                   RIV =         775.7922     RIV_SYS1                         
                 RIV =           0.0000                   RIV =           0.0000     RIV_SYS2                         
                 RCH =      230620.1564                   RCH =        1381.2975     RCH_MSW                          

            TOTAL IN =      610738.5427              TOTAL IN =        2980.9900

          OUT:                                     OUT:
          ----                                     ----
              STO-SS =       87521.6464                STO-SS =         533.2455     STORAGE                          
                 WEL =      167527.4464                   WEL =         801.2776     RIV_CORR                         
                 DRN =       40193.5412                   DRN =         234.3529     DRN_SYS1                         
                 RIV =      157294.0013                   RIV =         780.1986     RIV_SYS1                         
                 RIV =      108483.0182                   RIV =         631.8316     RIV_SYS2                         
                 RCH =       49720.7088                   RCH =           0.0000     RCH_MSW                          

           TOTAL OUT =      610740.3622             TOTAL OUT =        2980.9062

            IN - OUT =          -1.8195              IN - OUT =       8.3763E-02

 PERCENT DISCREPANCY =          -0.00     PERCENT DISCREPANCY =           0.00




         TIME SUMMARY AT END OF TIME STEP    1 IN STRESS PERIOD  154
                    SECONDS     MINUTES      HOURS       DAYS        YEARS
                    -----------------------------------------------------------
   TIME STEP LENGTH  86400.      1440.0      24.000      1.0000     2.73785E-03
 STRESS PERIOD TIME  86400.      1440.0      24.000      1.0000     2.73785E-03
         TOTAL TIME 1.33056E+07 2.21760E+05  3696.0      154.00     0.42163    


end timestep


start timestep kper="155" kstp="1" mode="normal"

 #Stressperiod Save Options

 BEGIN READING OUTPUT CONTROL FOR STRESS PERIOD 155
      ALL TIME STEPS WILL BE SAVED
      ALL TIME STEPS WILL BE SAVED

 END READING OUTPUT CONTROL FOR STRESS PERIOD 155


 PROCESSING STORAGE PERIOD DATA
 END PROCESSING STORAGE PERIOD DATA


 STRESS PERIOD 155 IS TRANSIENT


 REUSING WELS FROM LAST STRESS PERIOD

 REUSING DRNS FROM LAST STRESS PERIOD

 REUSING RIVS FROM LAST STRESS PERIOD

 REUSING RIVS FROM LAST STRESS PERIOD

 REUSING RCHS FROM LAST STRESS PERIOD
 UBDSV06 SAVING              DRN IN MODEL GWF_1            PACKAGE GWF_1           CONNECTED TO MODEL GWF_1            PACKAGE DRN_SYS1         ON UNIT   1019 AT TIME STEP      1, STRESS PERIOD    155
 UBDSV06 SAVING              RIV IN MODEL GWF_1            PACKAGE GWF_1           CONNECTED TO MODEL GWF_1            PACKAGE RIV_SYS1         ON UNIT   1019 AT TIME STEP      1, STRESS PERIOD    155
 UBDSV06 SAVING              RIV IN MODEL GWF_1            PACKAGE GWF_1           CONNECTED TO MODEL GWF_1            PACKAGE RIV_SYS2         ON UNIT   1019 AT TIME STEP      1, STRESS PERIOD    155

 HEAD WILL BE SAVED ON UNIT 1018 AT END OF TIME STEP    1, STRESS PERIOD  155


  VOLUME BUDGET FOR ENTIRE MODEL AT END OF TIME STEP    1, STRESS PERIOD 155
  ---------------------------------------------------------------------------------------------------

     CUMULATIVE VOLUME      L**3       RATES FOR THIS TIME STEP      L**3/T          PACKAGE NAME    
     ------------------                 ------------------------                     ----------------

           IN:                                      IN:
           ---                                      ---
              STO-SS =      137329.1496                STO-SS =           0.0000     STORAGE                          
                 WEL =      125712.5810                   WEL =         775.7922     RIV_CORR                         
                 DRN =           0.0000                   DRN =           0.0000     DRN_SYS1                         
                 RIV =      118107.8420                   RIV =         255.3940     RIV_SYS1                         
                 RIV =           0.0000                   RIV =           0.0000     RIV_SYS2                         
                 RCH =      240617.4955                   RCH =        9997.3391     RCH_MSW                          

            TOTAL IN =      621767.0681              TOTAL IN =       11028.5254

          OUT:                                     OUT:
          ----                                     ----
              STO-SS =       94552.0660                STO-SS =        7030.4197     STORAGE                          
                 WEL =      168307.6449                   WEL =         780.1986     RIV_CORR                         
                 DRN =       40439.6147                   DRN =         246.0736     DRN_SYS1                         
                 RIV =      159607.7809                   RIV =        2313.7797     RIV_SYS1                         
                 RIV =      109141.0665                   RIV =         658.0483     RIV_SYS2                         
                 RCH =       49720.7088                   RCH =           0.0000     RCH_MSW                          

           TOTAL OUT =      621768.8820             TOTAL OUT =       11028.5198

            IN - OUT =          -1.8139              IN - OUT =       5.5770E-03

 PERCENT DISCREPANCY =          -0.00     PERCENT DISCREPANCY =           0.00




         TIME SUMMARY AT END OF TIME STEP    1 IN STRESS PERIOD  155
                    SECONDS     MINUTES      HOURS       DAYS        YEARS
                    -----------------------------------------------------------
   TIME STEP LENGTH  86400.      1440.0      24.000      1.0000     2.73785E-03
 STRESS PERIOD TIME  86400.      1440.0      24.000      1.0000     2.73785E-03
         TOTAL TIME 1.33920E+07 2.23200E+05  3720.0      155.00     0.42437    


end timestep


start timestep kper="156" kstp="1" mode="normal"

 #Stressperiod Save Options

 BEGIN READING OUTPUT CONTROL FOR STRESS PERIOD 156
      ALL TIME STEPS WILL BE SAVED
      ALL TIME STEPS WILL BE SAVED

 END READING OUTPUT CONTROL FOR STRESS PERIOD 156


 PROCESSING STORAGE PERIOD DATA
 END PROCESSING STORAGE PERIOD DATA


 STRESS PERIOD 156 IS TRANSIENT


 REUSING WELS FROM LAST STRESS PERIOD

 REUSING DRNS FROM LAST STRESS PERIOD

 REUSING RIVS FROM LAST STRESS PERIOD

 REUSING RIVS FROM LAST STRESS PERIOD

 REUSING RCHS FROM LAST STRESS PERIOD
 UBDSV06 SAVING              DRN IN MODEL GWF_1            PACKAGE GWF_1           CONNECTED TO MODEL GWF_1            PACKAGE DRN_SYS1         ON UNIT   1019 AT TIME STEP      1, STRESS PERIOD    156
 UBDSV06 SAVING              RIV IN MODEL GWF_1            PACKAGE GWF_1           CONNECTED TO MODEL GWF_1            PACKAGE RIV_SYS1         ON UNIT   1019 AT TIME STEP      1, STRESS PERIOD    156
 UBDSV06 SAVING              RIV IN MODEL GWF_1            PACKAGE GWF_1           CONNECTED TO MODEL GWF_1            PACKAGE RIV_SYS2         ON UNIT   1019 AT TIME STEP      1, STRESS PERIOD    156

 HEAD WILL BE SAVED ON UNIT 1018 AT END OF TIME STEP    1, STRESS PERIOD  156


  VOLUME BUDGET FOR ENTIRE MODEL AT END OF TIME STEP    1, STRESS PERIOD 156
  ---------------------------------------------------------------------------------------------------

     CUMULATIVE VOLUME      L**3       RATES FOR THIS TIME STEP      L**3/T          PACKAGE NAME    
     ------------------                 ------------------------                     ----------------

           IN:                                      IN:
           ---                                      ---
              STO-SS =      139963.7694                STO-SS =        2634.6198     STORAGE                          
                 WEL =      125967.9750                   WEL =         255.3940     RIV_CORR                         
                 DRN =           0.0000                   DRN =           0.0000     DRN_SYS1                         
                 RIV =      119240.8335                   RIV =        1132.9916     RIV_SYS1                         
                 RIV =           0.0000                   RIV =           0.0000     RIV_SYS2                         
                 RCH =      243270.1444                   RCH =        2652.6489     RCH_MSW                          

            TOTAL IN =      628442.7224              TOTAL IN =        6675.6543

          OUT:                                     OUT:
          ----                                     ----
              STO-SS =       95999.8860                STO-SS =        1447.8200     STORAGE                          
                 WEL =      170621.4246                   WEL =        2313.7797     RIV_CORR                         
                 DRN =       40690.1545                   DRN =         250.5398     DRN_SYS1                         
                 RIV =      160483.8613                   RIV =         876.0804     RIV_SYS1                         
                 RIV =      109810.5275                   RIV =         669.4610     RIV_SYS2                         
                 RCH =       50838.6766                   RCH =        1117.9677     RCH_MSW                          

           TOTAL OUT =      628444.5305             TOTAL OUT =        6675.6485

            IN - OUT =          -1.8081              IN - OUT =       5.7356E-03

 PERCENT DISCREPANCY =          -0.00     PERCENT DISCREPANCY =           0.00




         TIME SUMMARY AT END OF TIME STEP    1 IN STRESS PERIOD  156
                    SECONDS     MINUTES      HOURS       DAYS        YEARS
                    -----------------------------------------------------------
   TIME STEP LENGTH  86400.      1440.0      24.000      1.0000     2.73785E-03
 STRESS PERIOD TIME  86400.      1440.0      24.000      1.0000     2.73785E-03
         TOTAL TIME 1.34784E+07 2.24640E+05  3744.0      156.00     0.42710    


end timestep


start timestep kper="157" kstp="1" mode="normal"

 #Stressperiod Save Options

 BEGIN READING OUTPUT CONTROL FOR STRESS PERIOD 157
      ALL TIME STEPS WILL BE SAVED
      ALL TIME STEPS WILL BE SAVED

 END READING OUTPUT CONTROL FOR STRESS PERIOD 157


 PROCESSING STORAGE PERIOD DATA
 END PROCESSING STORAGE PERIOD DATA


 STRESS PERIOD 157 IS TRANSIENT


 REUSING WELS FROM LAST STRESS PERIOD

 REUSING DRNS FROM LAST STRESS PERIOD

 REUSING RIVS FROM LAST STRESS PERIOD

 REUSING RIVS FROM LAST STRESS PERIOD

 REUSING RCHS FROM LAST STRESS PERIOD
 UBDSV06 SAVING              DRN IN MODEL GWF_1            PACKAGE GWF_1           CONNECTED TO MODEL GWF_1            PACKAGE DRN_SYS1         ON UNIT   1019 AT TIME STEP      1, STRESS PERIOD    157
 UBDSV06 SAVING              RIV IN MODEL GWF_1            PACKAGE GWF_1           CONNECTED TO MODEL GWF_1            PACKAGE RIV_SYS1         ON UNIT   1019 AT TIME STEP      1, STRESS PERIOD    157
 UBDSV06 SAVING              RIV IN MODEL GWF_1            PACKAGE GWF_1           CONNECTED TO MODEL GWF_1            PACKAGE RIV_SYS2         ON UNIT   1019 AT TIME STEP      1, STRESS PERIOD    157

 HEAD WILL BE SAVED ON UNIT 1018 AT END OF TIME STEP    1, STRESS PERIOD  157


  VOLUME BUDGET FOR ENTIRE MODEL AT END OF TIME STEP    1, STRESS PERIOD 157
  ---------------------------------------------------------------------------------------------------

     CUMULATIVE VOLUME      L**3       RATES FOR THIS TIME STEP      L**3/T          PACKAGE NAME    
     ------------------                 ------------------------                     ----------------

           IN:                                      IN:
           ---                                      ---
              STO-SS =      140157.4108                STO-SS =         193.6414     STORAGE                          
                 WEL =      127100.9666                   WEL =        1132.9916     RIV_CORR                         
                 DRN =           0.0000                   DRN =           0.0000     DRN_SYS1                         
                 RIV =      119725.9576                   RIV =         485.1241     RIV_SYS1                         
                 RIV =           0.0000                   RIV =           0.0000     RIV_SYS2                         
                 RCH =      245696.5695                   RCH =        2426.4251     RCH_MSW                          

            TOTAL IN =      632680.9044              TOTAL IN =        4238.1821

          OUT:                                     OUT:
          ----                                     ----
              STO-SS =       97244.0144                STO-SS =        1244.1284     STORAGE                          
                 WEL =      171497.5050                   WEL =         876.0804     RIV_CORR                         
                 DRN =       40942.6028                   DRN =         252.4483     DRN_SYS1                         
                 RIV =      161674.6715                   RIV =        1190.8101     RIV_SYS1                         
                 RIV =      110485.3028                   RIV =         674.7753     RIV_SYS2                         
                 RCH =       50838.6766                   RCH =           0.0000     RCH_MSW                          

           TOTAL OUT =      632682.7730             TOTAL OUT =        4238.2425

            IN - OUT =          -1.8686              IN - OUT =      -6.0445E-02

 PERCENT DISCREPANCY =          -0.00     PERCENT DISCREPANCY =          -0.00




         TIME SUMMARY AT END OF TIME STEP    1 IN STRESS PERIOD  157
                    SECONDS     MINUTES      HOURS       DAYS        YEARS
                    -----------------------------------------------------------
   TIME STEP LENGTH  86400.      1440.0      24.000      1.0000     2.73785E-03
 STRESS PERIOD TIME  86400.      1440.0      24.000      1.0000     2.73785E-03
         TOTAL TIME 1.35648E+07 2.26080E+05  3768.0      157.00     0.42984    


end timestep


start timestep kper="158" kstp="1" mode="normal"

 #Stressperiod Save Options

 BEGIN READING OUTPUT CONTROL FOR STRESS PERIOD 158
      ALL TIME STEPS WILL BE SAVED
      ALL TIME STEPS WILL BE SAVED

 END READING OUTPUT CONTROL FOR STRESS PERIOD 158


 PROCESSING STORAGE PERIOD DATA
 END PROCESSING STORAGE PERIOD DATA


 STRESS PERIOD 158 IS TRANSIENT


 REUSING WELS FROM LAST STRESS PERIOD

 REUSING DRNS FROM LAST STRESS PERIOD

 REUSING RIVS FROM LAST STRESS PERIOD

 REUSING RIVS FROM LAST STRESS PERIOD

 REUSING RCHS FROM LAST STRESS PERIOD
 UBDSV06 SAVING              DRN IN MODEL GWF_1            PACKAGE GWF_1           CONNECTED TO MODEL GWF_1            PACKAGE DRN_SYS1         ON UNIT   1019 AT TIME STEP      1, STRESS PERIOD    158
 UBDSV06 SAVING              RIV IN MODEL GWF_1            PACKAGE GWF_1           CONNECTED TO MODEL GWF_1            PACKAGE RIV_SYS1         ON UNIT   1019 AT TIME STEP      1, STRESS PERIOD    158
 UBDSV06 SAVING              RIV IN MODEL GWF_1            PACKAGE GWF_1           CONNECTED TO MODEL GWF_1            PACKAGE RIV_SYS2         ON UNIT   1019 AT TIME STEP      1, STRESS PERIOD    158

 HEAD WILL BE SAVED ON UNIT 1018 AT END OF TIME STEP    1, STRESS PERIOD  158


  VOLUME BUDGET FOR ENTIRE MODEL AT END OF TIME STEP    1, STRESS PERIOD 158
  ---------------------------------------------------------------------------------------------------

     CUMULATIVE VOLUME      L**3       RATES FOR THIS TIME STEP      L**3/T          PACKAGE NAME    
     ------------------                 ------------------------                     ----------------

           IN:                                      IN:
           ---                                      ---
              STO-SS =      140790.5073                STO-SS =         633.0965     STORAGE                          
                 WEL =      127586.0906                   WEL =         485.1241     RIV_CORR                         
                 DRN =           0.0000                   DRN =           0.0000     DRN_SYS1                         
                 RIV =      120536.2997                   RIV =         810.3421     RIV_SYS1                         
                 RIV =           0.0000                   RIV =           0.0000     RIV_SYS2                         
                 RCH =      247367.5647                   RCH =        1670.9953     RCH_MSW                          

            TOTAL IN =      636280.4624              TOTAL IN =        3599.5580

          OUT:                                     OUT:
          ----                                     ----
              STO-SS =       97858.5048                STO-SS =         614.4904     STORAGE                          
                 WEL =      172688.3151                   WEL =        1190.8101     RIV_CORR                         
                 DRN =       41195.5677                   DRN =         252.9649     DRN_SYS1                         
                 RIV =      162535.5931                   RIV =         860.9216     RIV_SYS1                         
                 RIV =      111161.7013                   RIV =         676.3985     RIV_SYS2                         
                 RCH =       50842.5123                   RCH =           3.8358     RCH_MSW                          

           TOTAL OUT =      636282.1943             TOTAL OUT =        3599.4212

            IN - OUT =          -1.7319              IN - OUT =           0.1367

 PERCENT DISCREPANCY =          -0.00     PERCENT DISCREPANCY =           0.00




         TIME SUMMARY AT END OF TIME STEP    1 IN STRESS PERIOD  158
                    SECONDS     MINUTES      HOURS       DAYS        YEARS
                    -----------------------------------------------------------
   TIME STEP LENGTH  86400.      1440.0      24.000      1.0000     2.73785E-03
 STRESS PERIOD TIME  86400.      1440.0      24.000      1.0000     2.73785E-03
         TOTAL TIME 1.36512E+07 2.27520E+05  3792.0      158.00     0.43258    


end timestep


start timestep kper="159" kstp="1" mode="normal"

 #Stressperiod Save Options

 BEGIN READING OUTPUT CONTROL FOR STRESS PERIOD 159
      ALL TIME STEPS WILL BE SAVED
      ALL TIME STEPS WILL BE SAVED

 END READING OUTPUT CONTROL FOR STRESS PERIOD 159


 PROCESSING STORAGE PERIOD DATA
 END PROCESSING STORAGE PERIOD DATA


 STRESS PERIOD 159 IS TRANSIENT


 REUSING WELS FROM LAST STRESS PERIOD

 REUSING DRNS FROM LAST STRESS PERIOD

 REUSING RIVS FROM LAST STRESS PERIOD

 REUSING RIVS FROM LAST STRESS PERIOD

 REUSING RCHS FROM LAST STRESS PERIOD
 UBDSV06 SAVING              DRN IN MODEL GWF_1            PACKAGE GWF_1           CONNECTED TO MODEL GWF_1            PACKAGE DRN_SYS1         ON UNIT   1019 AT TIME STEP      1, STRESS PERIOD    159
 UBDSV06 SAVING              RIV IN MODEL GWF_1            PACKAGE GWF_1           CONNECTED TO MODEL GWF_1            PACKAGE RIV_SYS1         ON UNIT   1019 AT TIME STEP      1, STRESS PERIOD    159
 UBDSV06 SAVING              RIV IN MODEL GWF_1            PACKAGE GWF_1           CONNECTED TO MODEL GWF_1            PACKAGE RIV_SYS2         ON UNIT   1019 AT TIME STEP      1, STRESS PERIOD    159

 HEAD WILL BE SAVED ON UNIT 1018 AT END OF TIME STEP    1, STRESS PERIOD  159


  VOLUME BUDGET FOR ENTIRE MODEL AT END OF TIME STEP    1, STRESS PERIOD 159
  ---------------------------------------------------------------------------------------------------

     CUMULATIVE VOLUME      L**3       RATES FOR THIS TIME STEP      L**3/T          PACKAGE NAME    
     ------------------                 ------------------------                     ----------------

           IN:                                      IN:
           ---                                      ---
              STO-SS =      140790.5073                STO-SS =           0.0000     STORAGE                          
                 WEL =      128396.4328                   WEL =         810.3421     RIV_CORR                         
                 DRN =           0.0000                   DRN =           0.0000     DRN_SYS1                         
                 RIV =      120983.2040                   RIV =         446.9043     RIV_SYS1                         
                 RIV =           0.0000                   RIV =           0.0000     RIV_SYS2                         
                 RCH =      250521.3387                   RCH =        3153.7740     RCH_MSW                          

            TOTAL IN =      640691.4829              TOTAL IN =        4411.0205

          OUT:                                     OUT:
          ----                                     ----
              STO-SS =       99208.1733                STO-SS =        1349.6685     STORAGE                          
                 WEL =      173549.2367                   WEL =         860.9216     RIV_CORR                         
                 DRN =       41450.1068                   DRN =         254.5391     DRN_SYS1                         
                 RIV =      163801.1266                   RIV =        1265.5335     RIV_SYS1                         
                 RIV =      111842.0550                   RIV =         680.3536     RIV_SYS2                         
                 RCH =       50842.5123                   RCH =           0.0000     RCH_MSW                          

           TOTAL OUT =      640693.2107             TOTAL OUT =        4411.0164

            IN - OUT =          -1.7278              IN - OUT =       4.0525E-03

 PERCENT DISCREPANCY =          -0.00     PERCENT DISCREPANCY =           0.00




         TIME SUMMARY AT END OF TIME STEP    1 IN STRESS PERIOD  159
                    SECONDS     MINUTES      HOURS       DAYS        YEARS
                    -----------------------------------------------------------
   TIME STEP LENGTH  86400.      1440.0      24.000      1.0000     2.73785E-03
 STRESS PERIOD TIME  86400.      1440.0      24.000      1.0000     2.73785E-03
         TOTAL TIME 1.37376E+07 2.28960E+05  3816.0      159.00     0.43532    


end timestep


start timestep kper="160" kstp="1" mode="normal"

 #Stressperiod Save Options

 BEGIN READING OUTPUT CONTROL FOR STRESS PERIOD 160
      ALL TIME STEPS WILL BE SAVED
      ALL TIME STEPS WILL BE SAVED

 END READING OUTPUT CONTROL FOR STRESS PERIOD 160


 PROCESSING STORAGE PERIOD DATA
 END PROCESSING STORAGE PERIOD DATA


 STRESS PERIOD 160 IS TRANSIENT


 REUSING WELS FROM LAST STRESS PERIOD

 REUSING DRNS FROM LAST STRESS PERIOD

 REUSING RIVS FROM LAST STRESS PERIOD

 REUSING RIVS FROM LAST STRESS PERIOD

 REUSING RCHS FROM LAST STRESS PERIOD
 UBDSV06 SAVING              DRN IN MODEL GWF_1            PACKAGE GWF_1           CONNECTED TO MODEL GWF_1            PACKAGE DRN_SYS1         ON UNIT   1019 AT TIME STEP      1, STRESS PERIOD    160
 UBDSV06 SAVING              RIV IN MODEL GWF_1            PACKAGE GWF_1           CONNECTED TO MODEL GWF_1            PACKAGE RIV_SYS1         ON UNIT   1019 AT TIME STEP      1, STRESS PERIOD    160
 UBDSV06 SAVING              RIV IN MODEL GWF_1            PACKAGE GWF_1           CONNECTED TO MODEL GWF_1            PACKAGE RIV_SYS2         ON UNIT   1019 AT TIME STEP      1, STRESS PERIOD    160

 HEAD WILL BE SAVED ON UNIT 1018 AT END OF TIME STEP    1, STRESS PERIOD  160


  VOLUME BUDGET FOR ENTIRE MODEL AT END OF TIME STEP    1, STRESS PERIOD 160
  ---------------------------------------------------------------------------------------------------

     CUMULATIVE VOLUME      L**3       RATES FOR THIS TIME STEP      L**3/T          PACKAGE NAME    
     ------------------                 ------------------------                     ----------------

           IN:                                      IN:
           ---                                      ---
              STO-SS =      140881.4245                STO-SS =          90.9172     STORAGE                          
                 WEL =      128843.3371                   WEL =         446.9043     RIV_CORR                         
                 DRN =           0.0000                   DRN =           0.0000     DRN_SYS1                         
                 RIV =      121516.2541                   RIV =         533.0500     RIV_SYS1                         
                 RIV =           0.0000                   RIV =           0.0000     RIV_SYS2                         
                 RCH =      253734.1693                   RCH =        3212.8306     RCH_MSW                          

            TOTAL IN =      644975.1850              TOTAL IN =        4283.7022

          OUT:                                     OUT:
          ----                                     ----
              STO-SS =      100296.5319                STO-SS =        1088.3586     STORAGE                          
                 WEL =      174814.7702                   WEL =        1265.5335     RIV_CORR                         
                 DRN =       41706.9597                   DRN =         256.8529     DRN_SYS1                         
                 RIV =      164788.0614                   RIV =         986.9348     RIV_SYS1                         
                 RIV =      112528.0830                   RIV =         686.0280     RIV_SYS2                         
                 RCH =       50842.5123                   RCH =           0.0000     RCH_MSW                          

           TOTAL OUT =      644976.9185             TOTAL OUT =        4283.7078

            IN - OUT =          -1.7335              IN - OUT =      -5.6679E-03

 PERCENT DISCREPANCY =          -0.00     PERCENT DISCREPANCY =          -0.00




         TIME SUMMARY AT END OF TIME STEP    1 IN STRESS PERIOD  160
                    SECONDS     MINUTES      HOURS       DAYS        YEARS
                    -----------------------------------------------------------
   TIME STEP LENGTH  86400.      1440.0      24.000      1.0000     2.73785E-03
 STRESS PERIOD TIME  86400.      1440.0      24.000      1.0000     2.73785E-03
         TOTAL TIME 1.38240E+07 2.30400E+05  3840.0      160.00     0.43806    


end timestep


start timestep kper="161" kstp="1" mode="normal"

 #Stressperiod Save Options

 BEGIN READING OUTPUT CONTROL FOR STRESS PERIOD 161
      ALL TIME STEPS WILL BE SAVED
      ALL TIME STEPS WILL BE SAVED

 END READING OUTPUT CONTROL FOR STRESS PERIOD 161


 PROCESSING STORAGE PERIOD DATA
 END PROCESSING STORAGE PERIOD DATA


 STRESS PERIOD 161 IS TRANSIENT


 REUSING WELS FROM LAST STRESS PERIOD

 REUSING DRNS FROM LAST STRESS PERIOD

 REUSING RIVS FROM LAST STRESS PERIOD

 REUSING RIVS FROM LAST STRESS PERIOD

 REUSING RCHS FROM LAST STRESS PERIOD
 UBDSV06 SAVING              DRN IN MODEL GWF_1            PACKAGE GWF_1           CONNECTED TO MODEL GWF_1            PACKAGE DRN_SYS1         ON UNIT   1019 AT TIME STEP      1, STRESS PERIOD    161
 UBDSV06 SAVING              RIV IN MODEL GWF_1            PACKAGE GWF_1           CONNECTED TO MODEL GWF_1            PACKAGE RIV_SYS1         ON UNIT   1019 AT TIME STEP      1, STRESS PERIOD    161
 UBDSV06 SAVING              RIV IN MODEL GWF_1            PACKAGE GWF_1           CONNECTED TO MODEL GWF_1            PACKAGE RIV_SYS2         ON UNIT   1019 AT TIME STEP      1, STRESS PERIOD    161

 HEAD WILL BE SAVED ON UNIT 1018 AT END OF TIME STEP    1, STRESS PERIOD  161


  VOLUME BUDGET FOR ENTIRE MODEL AT END OF TIME STEP    1, STRESS PERIOD 161
  ---------------------------------------------------------------------------------------------------

     CUMULATIVE VOLUME      L**3       RATES FOR THIS TIME STEP      L**3/T          PACKAGE NAME    
     ------------------                 ------------------------                     ----------------

           IN:                                      IN:
           ---                                      ---
              STO-SS =      141143.7233                STO-SS =         262.2987     STORAGE                          
                 WEL =      129376.3871                   WEL =         533.0500     RIV_CORR                         
                 DRN =           0.0000                   DRN =           0.0000     DRN_SYS1                         
                 RIV =      122108.5025                   RIV =         592.2484     RIV_SYS1                         
                 RIV =           0.0000                   RIV =           0.0000     RIV_SYS2                         
                 RCH =      255822.4632                   RCH =        2088.2939     RCH_MSW                          

            TOTAL IN =      648451.0761              TOTAL IN =        3475.8910

          OUT:                                     OUT:
          ----                                     ----
              STO-SS =      100913.1162                STO-SS =         616.5843     STORAGE                          
                 WEL =      175801.7050                   WEL =         986.9348     RIV_CORR                         
                 DRN =       41965.0125                   DRN =         258.0528     DRN_SYS1                         
                 RIV =      165713.1152                   RIV =         925.0538     RIV_SYS1                         
                 RIV =      113217.3097                   RIV =         689.2268     RIV_SYS2                         
                 RCH =       50842.6134                   RCH =           0.1011     RCH_MSW                          

           TOTAL OUT =      648452.8721             TOTAL OUT =        3475.9536

            IN - OUT =          -1.7961              IN - OUT =      -6.2575E-02

 PERCENT DISCREPANCY =          -0.00     PERCENT DISCREPANCY =          -0.00




         TIME SUMMARY AT END OF TIME STEP    1 IN STRESS PERIOD  161
                    SECONDS     MINUTES      HOURS       DAYS        YEARS
                    -----------------------------------------------------------
   TIME STEP LENGTH  86400.      1440.0      24.000      1.0000     2.73785E-03
 STRESS PERIOD TIME  86400.      1440.0      24.000      1.0000     2.73785E-03
         TOTAL TIME 1.39104E+07 2.31840E+05  3864.0      161.00     0.44079    


end timestep


start timestep kper="162" kstp="1" mode="normal"

 #Stressperiod Save Options

 BEGIN READING OUTPUT CONTROL FOR STRESS PERIOD 162
      ALL TIME STEPS WILL BE SAVED
      ALL TIME STEPS WILL BE SAVED

 END READING OUTPUT CONTROL FOR STRESS PERIOD 162


 PROCESSING STORAGE PERIOD DATA
 END PROCESSING STORAGE PERIOD DATA


 STRESS PERIOD 162 IS TRANSIENT


 REUSING WELS FROM LAST STRESS PERIOD

 REUSING DRNS FROM LAST STRESS PERIOD

 REUSING RIVS FROM LAST STRESS PERIOD

 REUSING RIVS FROM LAST STRESS PERIOD

 REUSING RCHS FROM LAST STRESS PERIOD
 UBDSV06 SAVING              DRN IN MODEL GWF_1            PACKAGE GWF_1           CONNECTED TO MODEL GWF_1            PACKAGE DRN_SYS1         ON UNIT   1019 AT TIME STEP      1, STRESS PERIOD    162
 UBDSV06 SAVING              RIV IN MODEL GWF_1            PACKAGE GWF_1           CONNECTED TO MODEL GWF_1            PACKAGE RIV_SYS1         ON UNIT   1019 AT TIME STEP      1, STRESS PERIOD    162
 UBDSV06 SAVING              RIV IN MODEL GWF_1            PACKAGE GWF_1           CONNECTED TO MODEL GWF_1            PACKAGE RIV_SYS2         ON UNIT   1019 AT TIME STEP      1, STRESS PERIOD    162

 HEAD WILL BE SAVED ON UNIT 1018 AT END OF TIME STEP    1, STRESS PERIOD  162


  VOLUME BUDGET FOR ENTIRE MODEL AT END OF TIME STEP    1, STRESS PERIOD 162
  ---------------------------------------------------------------------------------------------------

     CUMULATIVE VOLUME      L**3       RATES FOR THIS TIME STEP      L**3/T          PACKAGE NAME    
     ------------------                 ------------------------                     ----------------

           IN:                                      IN:
           ---                                      ---
              STO-SS =      141728.3819                STO-SS =         584.6586     STORAGE                          
                 WEL =      129968.6355                   WEL =         592.2484     RIV_CORR                         
                 DRN =           0.0000                   DRN =           0.0000     DRN_SYS1                         
                 RIV =      122878.2945                   RIV =         769.7920     RIV_SYS1                         
                 RIV =           0.0000                   RIV =           0.0000     RIV_SYS2                         
                 RCH =      257199.4760                   RCH =        1377.0127     RCH_MSW                          

            TOTAL IN =      651774.7879              TOTAL IN =        3323.7118

          OUT:                                     OUT:
          ----                                     ----
              STO-SS =      101228.5190                STO-SS =         315.4028     STORAGE                          
                 WEL =      176726.7589                   WEL =         925.0538     RIV_CORR                         
                 DRN =       42222.8890                   DRN =         257.8765     DRN_SYS1                         
                 RIV =      166583.0696                   RIV =         869.9544     RIV_SYS1                         
                 RIV =      113906.4152                   RIV =         689.1054     RIV_SYS2                         
                 RCH =       51108.9394                   RCH =         266.3259     RCH_MSW                          

           TOTAL OUT =      651776.5909             TOTAL OUT =        3323.7188

            IN - OUT =          -1.8031              IN - OUT =      -7.0172E-03

 PERCENT DISCREPANCY =          -0.00     PERCENT DISCREPANCY =          -0.00




         TIME SUMMARY AT END OF TIME STEP    1 IN STRESS PERIOD  162
                    SECONDS     MINUTES      HOURS       DAYS        YEARS
                    -----------------------------------------------------------
   TIME STEP LENGTH  86400.      1440.0      24.000      1.0000     2.73785E-03
 STRESS PERIOD TIME  86400.      1440.0      24.000      1.0000     2.73785E-03
         TOTAL TIME 1.39968E+07 2.33280E+05  3888.0      162.00     0.44353    


end timestep


start timestep kper="163" kstp="1" mode="normal"

 #Stressperiod Save Options

 BEGIN READING OUTPUT CONTROL FOR STRESS PERIOD 163
      ALL TIME STEPS WILL BE SAVED
      ALL TIME STEPS WILL BE SAVED

 END READING OUTPUT CONTROL FOR STRESS PERIOD 163


 PROCESSING STORAGE PERIOD DATA
 END PROCESSING STORAGE PERIOD DATA


 STRESS PERIOD 163 IS TRANSIENT


 REUSING WELS FROM LAST STRESS PERIOD

 REUSING DRNS FROM LAST STRESS PERIOD

 REUSING RIVS FROM LAST STRESS PERIOD

 REUSING RIVS FROM LAST STRESS PERIOD

 REUSING RCHS FROM LAST STRESS PERIOD
 UBDSV06 SAVING              DRN IN MODEL GWF_1            PACKAGE GWF_1           CONNECTED TO MODEL GWF_1            PACKAGE DRN_SYS1         ON UNIT   1019 AT TIME STEP      1, STRESS PERIOD    163
 UBDSV06 SAVING              RIV IN MODEL GWF_1            PACKAGE GWF_1           CONNECTED TO MODEL GWF_1            PACKAGE RIV_SYS1         ON UNIT   1019 AT TIME STEP      1, STRESS PERIOD    163
 UBDSV06 SAVING              RIV IN MODEL GWF_1            PACKAGE GWF_1           CONNECTED TO MODEL GWF_1            PACKAGE RIV_SYS2         ON UNIT   1019 AT TIME STEP      1, STRESS PERIOD    163

 HEAD WILL BE SAVED ON UNIT 1018 AT END OF TIME STEP    1, STRESS PERIOD  163


  VOLUME BUDGET FOR ENTIRE MODEL AT END OF TIME STEP    1, STRESS PERIOD 163
  ---------------------------------------------------------------------------------------------------

     CUMULATIVE VOLUME      L**3       RATES FOR THIS TIME STEP      L**3/T          PACKAGE NAME    
     ------------------                 ------------------------                     ----------------

           IN:                                      IN:
           ---                                      ---
              STO-SS =      142592.5983                STO-SS =         864.2164     STORAGE                          
                 WEL =      130738.4275                   WEL =         769.7920     RIV_CORR                         
                 DRN =           0.0000                   DRN =           0.0000     DRN_SYS1                         
                 RIV =      123794.8767                   RIV =         916.5822     RIV_SYS1                         
                 RIV =           0.0000                   RIV =           0.0000     RIV_SYS2                         
                 RCH =      258127.7031                   RCH =         928.2272     RCH_MSW                          

            TOTAL IN =      655253.6056              TOTAL IN =        3478.8178

          OUT:                                     OUT:
          ----                                     ----
              STO-SS =      101378.8060                STO-SS =         150.2870     STORAGE                          
                 WEL =      177596.7132                   WEL =         869.9544     RIV_CORR                         
                 DRN =       42479.5753                   DRN =         256.6864     DRN_SYS1                         
                 RIV =      167421.9502                   RIV =         838.8806     RIV_SYS1                         
                 RIV =      114592.8467                   RIV =         686.4316     RIV_SYS2                         
                 RCH =       51785.5248                   RCH =         676.5854     RCH_MSW                          

           TOTAL OUT =      655255.4163             TOTAL OUT =        3478.8253

            IN - OUT =          -1.8106              IN - OUT =      -7.5635E-03

 PERCENT DISCREPANCY =          -0.00     PERCENT DISCREPANCY =          -0.00




         TIME SUMMARY AT END OF TIME STEP    1 IN STRESS PERIOD  163
                    SECONDS     MINUTES      HOURS       DAYS        YEARS
                    -----------------------------------------------------------
   TIME STEP LENGTH  86400.      1440.0      24.000      1.0000     2.73785E-03
 STRESS PERIOD TIME  86400.      1440.0      24.000      1.0000     2.73785E-03
         TOTAL TIME 1.40832E+07 2.34720E+05  3912.0      163.00     0.44627    


end timestep


start timestep kper="164" kstp="1" mode="normal"

 #Stressperiod Save Options

 BEGIN READING OUTPUT CONTROL FOR STRESS PERIOD 164
      ALL TIME STEPS WILL BE SAVED
      ALL TIME STEPS WILL BE SAVED

 END READING OUTPUT CONTROL FOR STRESS PERIOD 164


 PROCESSING STORAGE PERIOD DATA
 END PROCESSING STORAGE PERIOD DATA


 STRESS PERIOD 164 IS TRANSIENT


 REUSING WELS FROM LAST STRESS PERIOD

 REUSING DRNS FROM LAST STRESS PERIOD

 REUSING RIVS FROM LAST STRESS PERIOD

 REUSING RIVS FROM LAST STRESS PERIOD

 REUSING RCHS FROM LAST STRESS PERIOD
 UBDSV06 SAVING              DRN IN MODEL GWF_1            PACKAGE GWF_1           CONNECTED TO MODEL GWF_1            PACKAGE DRN_SYS1         ON UNIT   1019 AT TIME STEP      1, STRESS PERIOD    164
 UBDSV06 SAVING              RIV IN MODEL GWF_1            PACKAGE GWF_1           CONNECTED TO MODEL GWF_1            PACKAGE RIV_SYS1         ON UNIT   1019 AT TIME STEP      1, STRESS PERIOD    164
 UBDSV06 SAVING              RIV IN MODEL GWF_1            PACKAGE GWF_1           CONNECTED TO MODEL GWF_1            PACKAGE RIV_SYS2         ON UNIT   1019 AT TIME STEP      1, STRESS PERIOD    164

 HEAD WILL BE SAVED ON UNIT 1018 AT END OF TIME STEP    1, STRESS PERIOD  164


  VOLUME BUDGET FOR ENTIRE MODEL AT END OF TIME STEP    1, STRESS PERIOD 164
  ---------------------------------------------------------------------------------------------------

     CUMULATIVE VOLUME      L**3       RATES FOR THIS TIME STEP      L**3/T          PACKAGE NAME    
     ------------------                 ------------------------                     ----------------

           IN:                                      IN:
           ---                                      ---
              STO-SS =      143450.0614                STO-SS =         857.4631     STORAGE                          
                 WEL =      131655.0097                   WEL =         916.5822     RIV_CORR                         
                 DRN =           0.0000                   DRN =           0.0000     DRN_SYS1                         
                 RIV =      124730.7677                   RIV =         935.8910     RIV_SYS1                         
                 RIV =           0.0000                   RIV =           0.0000     RIV_SYS2                         
                 RCH =      258790.1341                   RCH =         662.4309     RCH_MSW                          

            TOTAL IN =      658625.9729              TOTAL IN =        3372.3672

          OUT:                                     OUT:
          ----                                     ----
              STO-SS =      101444.1286                STO-SS =          65.3227     STORAGE                          
                 WEL =      178435.5939                   WEL =         838.8806     RIV_CORR                         
                 DRN =       42734.6288                   DRN =         255.0535     DRN_SYS1                         
                 RIV =      168238.2337                   RIV =         816.2835     RIV_SYS1                         
                 RIV =      115275.4401                   RIV =         682.5934     RIV_SYS2                         
                 RCH =       52499.7908                   RCH =         714.2661     RCH_MSW                          

           TOTAL OUT =      658627.8160             TOTAL OUT =        3372.3997

            IN - OUT =          -1.8431              IN - OUT =      -3.2494E-02

 PERCENT DISCREPANCY =          -0.00     PERCENT DISCREPANCY =          -0.00




         TIME SUMMARY AT END OF TIME STEP    1 IN STRESS PERIOD  164
                    SECONDS     MINUTES      HOURS       DAYS        YEARS
                    -----------------------------------------------------------
   TIME STEP LENGTH  86400.      1440.0      24.000      1.0000     2.73785E-03
 STRESS PERIOD TIME  86400.      1440.0      24.000      1.0000     2.73785E-03
         TOTAL TIME 1.41696E+07 2.36160E+05  3936.0      164.00     0.44901    


end timestep


start timestep kper="165" kstp="1" mode="normal"

 #Stressperiod Save Options

 BEGIN READING OUTPUT CONTROL FOR STRESS PERIOD 165
      ALL TIME STEPS WILL BE SAVED
      ALL TIME STEPS WILL BE SAVED

 END READING OUTPUT CONTROL FOR STRESS PERIOD 165


 PROCESSING STORAGE PERIOD DATA
 END PROCESSING STORAGE PERIOD DATA


 STRESS PERIOD 165 IS TRANSIENT


 REUSING WELS FROM LAST STRESS PERIOD

 REUSING DRNS FROM LAST STRESS PERIOD

 REUSING RIVS FROM LAST STRESS PERIOD

 REUSING RIVS FROM LAST STRESS PERIOD

 REUSING RCHS FROM LAST STRESS PERIOD
 UBDSV06 SAVING              DRN IN MODEL GWF_1            PACKAGE GWF_1           CONNECTED TO MODEL GWF_1            PACKAGE DRN_SYS1         ON UNIT   1019 AT TIME STEP      1, STRESS PERIOD    165
 UBDSV06 SAVING              RIV IN MODEL GWF_1            PACKAGE GWF_1           CONNECTED TO MODEL GWF_1            PACKAGE RIV_SYS1         ON UNIT   1019 AT TIME STEP      1, STRESS PERIOD    165
 UBDSV06 SAVING              RIV IN MODEL GWF_1            PACKAGE GWF_1           CONNECTED TO MODEL GWF_1            PACKAGE RIV_SYS2         ON UNIT   1019 AT TIME STEP      1, STRESS PERIOD    165

 HEAD WILL BE SAVED ON UNIT 1018 AT END OF TIME STEP    1, STRESS PERIOD  165


  VOLUME BUDGET FOR ENTIRE MODEL AT END OF TIME STEP    1, STRESS PERIOD 165
  ---------------------------------------------------------------------------------------------------

     CUMULATIVE VOLUME      L**3       RATES FOR THIS TIME STEP      L**3/T          PACKAGE NAME    
     ------------------                 ------------------------                     ----------------

           IN:                                      IN:
           ---                                      ---
              STO-SS =      144431.4860                STO-SS =         981.4246     STORAGE                          
                 WEL =      132590.9007                   WEL =         935.8910     RIV_CORR                         
                 DRN =           0.0000                   DRN =           0.0000     DRN_SYS1                         
                 RIV =      125777.6084                   RIV =        1046.8407     RIV_SYS1                         
                 RIV =           0.0000                   RIV =           0.0000     RIV_SYS2                         
                 RCH =      259270.2557                   RCH =         480.1217     RCH_MSW                          

            TOTAL IN =      662070.2508              TOTAL IN =        3444.2779

          OUT:                                     OUT:
          ----                                     ----
              STO-SS =      101462.1101                STO-SS =          17.9815     STORAGE                          
                 WEL =      179251.8773                   WEL =         816.2835     RIV_CORR                         
                 DRN =       42987.8489                   DRN =         253.2201     DRN_SYS1                         
                 RIV =      169036.0244                   RIV =         797.7907     RIV_SYS1                         
                 RIV =      115953.6378                   RIV =         678.1977     RIV_SYS2                         
                 RCH =       53380.7150                   RCH =         880.9242     RCH_MSW                          

           TOTAL OUT =      662072.2136             TOTAL OUT =        3444.3976

            IN - OUT =          -1.9628              IN - OUT =          -0.1197

 PERCENT DISCREPANCY =          -0.00     PERCENT DISCREPANCY =          -0.00




         TIME SUMMARY AT END OF TIME STEP    1 IN STRESS PERIOD  165
                    SECONDS     MINUTES      HOURS       DAYS        YEARS
                    -----------------------------------------------------------
   TIME STEP LENGTH  86400.      1440.0      24.000      1.0000     2.73785E-03
 STRESS PERIOD TIME  86400.      1440.0      24.000      1.0000     2.73785E-03
         TOTAL TIME 1.42560E+07 2.37600E+05  3960.0      165.00     0.45175    


end timestep


start timestep kper="166" kstp="1" mode="normal"

 #Stressperiod Save Options

 BEGIN READING OUTPUT CONTROL FOR STRESS PERIOD 166
      ALL TIME STEPS WILL BE SAVED
      ALL TIME STEPS WILL BE SAVED

 END READING OUTPUT CONTROL FOR STRESS PERIOD 166


 PROCESSING STORAGE PERIOD DATA
 END PROCESSING STORAGE PERIOD DATA


 STRESS PERIOD 166 IS TRANSIENT


 REUSING WELS FROM LAST STRESS PERIOD

 REUSING DRNS FROM LAST STRESS PERIOD

 REUSING RIVS FROM LAST STRESS PERIOD

 REUSING RIVS FROM LAST STRESS PERIOD

 REUSING RCHS FROM LAST STRESS PERIOD
 UBDSV06 SAVING              DRN IN MODEL GWF_1            PACKAGE GWF_1           CONNECTED TO MODEL GWF_1            PACKAGE DRN_SYS1         ON UNIT   1019 AT TIME STEP      1, STRESS PERIOD    166
 UBDSV06 SAVING              RIV IN MODEL GWF_1            PACKAGE GWF_1           CONNECTED TO MODEL GWF_1            PACKAGE RIV_SYS1         ON UNIT   1019 AT TIME STEP      1, STRESS PERIOD    166
 UBDSV06 SAVING              RIV IN MODEL GWF_1            PACKAGE GWF_1           CONNECTED TO MODEL GWF_1            PACKAGE RIV_SYS2         ON UNIT   1019 AT TIME STEP      1, STRESS PERIOD    166

 HEAD WILL BE SAVED ON UNIT 1018 AT END OF TIME STEP    1, STRESS PERIOD  166


  VOLUME BUDGET FOR ENTIRE MODEL AT END OF TIME STEP    1, STRESS PERIOD 166
  ---------------------------------------------------------------------------------------------------

     CUMULATIVE VOLUME      L**3       RATES FOR THIS TIME STEP      L**3/T          PACKAGE NAME    
     ------------------                 ------------------------                     ----------------

           IN:                                      IN:
           ---                                      ---
              STO-SS =      145367.6780                STO-SS =         936.1920     STORAGE                          
                 WEL =      133637.7414                   WEL =        1046.8407     RIV_CORR                         
                 DRN =           0.0000                   DRN =           0.0000     DRN_SYS1                         
                 RIV =      126823.0538                   RIV =        1045.4455     RIV_SYS1                         
                 RIV =           0.0000                   RIV =           0.0000     RIV_SYS2                         
                 RCH =      259626.1861                   RCH =         355.9303     RCH_MSW                          

            TOTAL IN =      665454.6592              TOTAL IN =        3384.4085

          OUT:                                     OUT:
          ----                                     ----
              STO-SS =      101469.2627                STO-SS =           7.1526     STORAGE                          
                 WEL =      180049.6680                   WEL =         797.7907     RIV_CORR                         
                 DRN =       43239.2146                   DRN =         251.3656     DRN_SYS1                         
                 RIV =      169819.4593                   RIV =         783.4349     RIV_SYS1                         
                 RIV =      116627.3674                   RIV =         673.7295     RIV_SYS2                         
                 RCH =       54251.7198                   RCH =         871.0047     RCH_MSW                          

           TOTAL OUT =      665456.6917             TOTAL OUT =        3384.4781

            IN - OUT =          -2.0324              IN - OUT =      -6.9624E-02

 PERCENT DISCREPANCY =          -0.00     PERCENT DISCREPANCY =          -0.00




         TIME SUMMARY AT END OF TIME STEP    1 IN STRESS PERIOD  166
                    SECONDS     MINUTES      HOURS       DAYS        YEARS
                    -----------------------------------------------------------
   TIME STEP LENGTH  86400.      1440.0      24.000      1.0000     2.73785E-03
 STRESS PERIOD TIME  86400.      1440.0      24.000      1.0000     2.73785E-03
         TOTAL TIME 1.43424E+07 2.39040E+05  3984.0      166.00     0.45448    


end timestep


start timestep kper="167" kstp="1" mode="normal"

 #Stressperiod Save Options

 BEGIN READING OUTPUT CONTROL FOR STRESS PERIOD 167
      ALL TIME STEPS WILL BE SAVED
      ALL TIME STEPS WILL BE SAVED

 END READING OUTPUT CONTROL FOR STRESS PERIOD 167


 PROCESSING STORAGE PERIOD DATA
 END PROCESSING STORAGE PERIOD DATA


 STRESS PERIOD 167 IS TRANSIENT


 REUSING WELS FROM LAST STRESS PERIOD

 REUSING DRNS FROM LAST STRESS PERIOD

 REUSING RIVS FROM LAST STRESS PERIOD

 REUSING RIVS FROM LAST STRESS PERIOD

 REUSING RCHS FROM LAST STRESS PERIOD
 UBDSV06 SAVING              DRN IN MODEL GWF_1            PACKAGE GWF_1           CONNECTED TO MODEL GWF_1            PACKAGE DRN_SYS1         ON UNIT   1019 AT TIME STEP      1, STRESS PERIOD    167
 UBDSV06 SAVING              RIV IN MODEL GWF_1            PACKAGE GWF_1           CONNECTED TO MODEL GWF_1            PACKAGE RIV_SYS1         ON UNIT   1019 AT TIME STEP      1, STRESS PERIOD    167
 UBDSV06 SAVING              RIV IN MODEL GWF_1            PACKAGE GWF_1           CONNECTED TO MODEL GWF_1            PACKAGE RIV_SYS2         ON UNIT   1019 AT TIME STEP      1, STRESS PERIOD    167

 HEAD WILL BE SAVED ON UNIT 1018 AT END OF TIME STEP    1, STRESS PERIOD  167


  VOLUME BUDGET FOR ENTIRE MODEL AT END OF TIME STEP    1, STRESS PERIOD 167
  ---------------------------------------------------------------------------------------------------

     CUMULATIVE VOLUME      L**3       RATES FOR THIS TIME STEP      L**3/T          PACKAGE NAME    
     ------------------                 ------------------------                     ----------------

           IN:                                      IN:
           ---                                      ---
              STO-SS =      146136.2901                STO-SS =         768.6122     STORAGE                          
                 WEL =      134683.1869                   WEL =        1045.4455     RIV_CORR                         
                 DRN =           0.0000                   DRN =           0.0000     DRN_SYS1                         
                 RIV =      127727.5797                   RIV =         904.5259     RIV_SYS1                         
                 RIV =           0.0000                   RIV =           0.0000     RIV_SYS2                         
                 RCH =      259968.7556                   RCH =         342.5695     RCH_MSW                          

            TOTAL IN =      668515.8123              TOTAL IN =        3061.1531

          OUT:                                     OUT:
          ----                                     ----
              STO-SS =      101546.5708                STO-SS =          77.3080     STORAGE                          
                 WEL =      180833.1029                   WEL =         783.4349     RIV_CORR                         
                 DRN =       43488.8854                   DRN =         249.6709     DRN_SYS1                         
                 RIV =      170597.9245                   RIV =         778.4653     RIV_SYS1                         
                 RIV =      117297.1207                   RIV =         669.7533     RIV_SYS2                         
                 RCH =       54754.2163                   RCH =         502.4966     RCH_MSW                          

           TOTAL OUT =      668517.8207             TOTAL OUT =        3061.1290

            IN - OUT =          -2.0083              IN - OUT =       2.4110E-02

 PERCENT DISCREPANCY =          -0.00     PERCENT DISCREPANCY =           0.00




         TIME SUMMARY AT END OF TIME STEP    1 IN STRESS PERIOD  167
                    SECONDS     MINUTES      HOURS       DAYS        YEARS
                    -----------------------------------------------------------
   TIME STEP LENGTH  86400.      1440.0      24.000      1.0000     2.73785E-03
 STRESS PERIOD TIME  86400.      1440.0      24.000      1.0000     2.73785E-03
         TOTAL TIME 1.44288E+07 2.40480E+05  4008.0      167.00     0.45722    


end timestep


start timestep kper="168" kstp="1" mode="normal"

 #Stressperiod Save Options

 BEGIN READING OUTPUT CONTROL FOR STRESS PERIOD 168
      ALL TIME STEPS WILL BE SAVED
      ALL TIME STEPS WILL BE SAVED

 END READING OUTPUT CONTROL FOR STRESS PERIOD 168


 PROCESSING STORAGE PERIOD DATA
 END PROCESSING STORAGE PERIOD DATA


 STRESS PERIOD 168 IS TRANSIENT


 REUSING WELS FROM LAST STRESS PERIOD

 REUSING DRNS FROM LAST STRESS PERIOD

 REUSING RIVS FROM LAST STRESS PERIOD

 REUSING RIVS FROM LAST STRESS PERIOD

 REUSING RCHS FROM LAST STRESS PERIOD
 UBDSV06 SAVING              DRN IN MODEL GWF_1            PACKAGE GWF_1           CONNECTED TO MODEL GWF_1            PACKAGE DRN_SYS1         ON UNIT   1019 AT TIME STEP      1, STRESS PERIOD    168
 UBDSV06 SAVING              RIV IN MODEL GWF_1            PACKAGE GWF_1           CONNECTED TO MODEL GWF_1            PACKAGE RIV_SYS1         ON UNIT   1019 AT TIME STEP      1, STRESS PERIOD    168
 UBDSV06 SAVING              RIV IN MODEL GWF_1            PACKAGE GWF_1           CONNECTED TO MODEL GWF_1            PACKAGE RIV_SYS2         ON UNIT   1019 AT TIME STEP      1, STRESS PERIOD    168

 HEAD WILL BE SAVED ON UNIT 1018 AT END OF TIME STEP    1, STRESS PERIOD  168


  VOLUME BUDGET FOR ENTIRE MODEL AT END OF TIME STEP    1, STRESS PERIOD 168
  ---------------------------------------------------------------------------------------------------

     CUMULATIVE VOLUME      L**3       RATES FOR THIS TIME STEP      L**3/T          PACKAGE NAME    
     ------------------                 ------------------------                     ----------------

           IN:                                      IN:
           ---                                      ---
              STO-SS =      146977.3478                STO-SS =         841.0577     STORAGE                          
                 WEL =      135587.7128                   WEL =         904.5259     RIV_CORR                         
                 DRN =           0.0000                   DRN =           0.0000     DRN_SYS1                         
                 RIV =      128772.8584                   RIV =        1045.2787     RIV_SYS1                         
                 RIV =           0.0000                   RIV =           0.0000     RIV_SYS2                         
                 RCH =      260208.1411                   RCH =         239.3855     RCH_MSW                          

            TOTAL IN =      671546.0601              TOTAL IN =        3030.2478

          OUT:                                     OUT:
          ----                                     ----
              STO-SS =      101546.5708                STO-SS =           0.0000     STORAGE                          
                 WEL =      181611.5682                   WEL =         778.4653     RIV_CORR                         
                 DRN =       43736.9847                   DRN =         248.0993     DRN_SYS1                         
                 RIV =      171363.7945                   RIV =         765.8700     RIV_SYS1                         
                 RIV =      117963.1478                   RIV =         666.0271     RIV_SYS2                         
                 RCH =       55326.0000                   RCH =         571.7837     RCH_MSW                          

           TOTAL OUT =      671548.0660             TOTAL OUT =        3030.2453

            IN - OUT =          -2.0058              IN - OUT =       2.4988E-03

 PERCENT DISCREPANCY =          -0.00     PERCENT DISCREPANCY =           0.00




         TIME SUMMARY AT END OF TIME STEP    1 IN STRESS PERIOD  168
                    SECONDS     MINUTES      HOURS       DAYS        YEARS
                    -----------------------------------------------------------
   TIME STEP LENGTH  86400.      1440.0      24.000      1.0000     2.73785E-03
 STRESS PERIOD TIME  86400.      1440.0      24.000      1.0000     2.73785E-03
         TOTAL TIME 1.45152E+07 2.41920E+05  4032.0      168.00     0.45996    


end timestep


start timestep kper="169" kstp="1" mode="normal"

 #Stressperiod Save Options

 BEGIN READING OUTPUT CONTROL FOR STRESS PERIOD 169
      ALL TIME STEPS WILL BE SAVED
      ALL TIME STEPS WILL BE SAVED

 END READING OUTPUT CONTROL FOR STRESS PERIOD 169


 PROCESSING STORAGE PERIOD DATA
 END PROCESSING STORAGE PERIOD DATA


 STRESS PERIOD 169 IS TRANSIENT


 REUSING WELS FROM LAST STRESS PERIOD

 REUSING DRNS FROM LAST STRESS PERIOD

 REUSING RIVS FROM LAST STRESS PERIOD

 REUSING RIVS FROM LAST STRESS PERIOD

 REUSING RCHS FROM LAST STRESS PERIOD
 UBDSV06 SAVING              DRN IN MODEL GWF_1            PACKAGE GWF_1           CONNECTED TO MODEL GWF_1            PACKAGE DRN_SYS1         ON UNIT   1019 AT TIME STEP      1, STRESS PERIOD    169
 UBDSV06 SAVING              RIV IN MODEL GWF_1            PACKAGE GWF_1           CONNECTED TO MODEL GWF_1            PACKAGE RIV_SYS1         ON UNIT   1019 AT TIME STEP      1, STRESS PERIOD    169
 UBDSV06 SAVING              RIV IN MODEL GWF_1            PACKAGE GWF_1           CONNECTED TO MODEL GWF_1            PACKAGE RIV_SYS2         ON UNIT   1019 AT TIME STEP      1, STRESS PERIOD    169

 HEAD WILL BE SAVED ON UNIT 1018 AT END OF TIME STEP    1, STRESS PERIOD  169


  VOLUME BUDGET FOR ENTIRE MODEL AT END OF TIME STEP    1, STRESS PERIOD 169
  ---------------------------------------------------------------------------------------------------

     CUMULATIVE VOLUME      L**3       RATES FOR THIS TIME STEP      L**3/T          PACKAGE NAME    
     ------------------                 ------------------------                     ----------------

           IN:                                      IN:
           ---                                      ---
              STO-SS =      147838.6061                STO-SS =         861.2583     STORAGE                          
                 WEL =      136632.9915                   WEL =        1045.2787     RIV_CORR                         
                 DRN =           0.0000                   DRN =           0.0000     DRN_SYS1                         
                 RIV =      129859.2510                   RIV =        1086.3925     RIV_SYS1                         
                 RIV =           0.0000                   RIV =           0.0000     RIV_SYS2                         
                 RCH =      260386.8583                   RCH =         178.7172     RCH_MSW                          

            TOTAL IN =      674717.7068              TOTAL IN =        3171.6467

          OUT:                                     OUT:
          ----                                     ----
              STO-SS =      101546.9485                STO-SS =           0.3777     STORAGE                          
                 WEL =      182377.4382                   WEL =         765.8700     RIV_CORR                         
                 DRN =       43983.5317                   DRN =         246.5470     DRN_SYS1                         
                 RIV =      172121.6375                   RIV =         757.8430     RIV_SYS1                         
                 RIV =      118625.4806                   RIV =         662.3328     RIV_SYS2                         
                 RCH =       56064.6907                   RCH =         738.6907     RCH_MSW                          

           TOTAL OUT =      674719.7272             TOTAL OUT =        3171.6612

            IN - OUT =          -2.0204              IN - OUT =      -1.4548E-02

 PERCENT DISCREPANCY =          -0.00     PERCENT DISCREPANCY =          -0.00




         TIME SUMMARY AT END OF TIME STEP    1 IN STRESS PERIOD  169
                    SECONDS     MINUTES      HOURS       DAYS        YEARS
                    -----------------------------------------------------------
   TIME STEP LENGTH  86400.      1440.0      24.000      1.0000     2.73785E-03
 STRESS PERIOD TIME  86400.      1440.0      24.000      1.0000     2.73785E-03
         TOTAL TIME 1.46016E+07 2.43360E+05  4056.0      169.00     0.46270    


end timestep


start timestep kper="170" kstp="1" mode="normal"

 #Stressperiod Save Options

 BEGIN READING OUTPUT CONTROL FOR STRESS PERIOD 170
      ALL TIME STEPS WILL BE SAVED
      ALL TIME STEPS WILL BE SAVED

 END READING OUTPUT CONTROL FOR STRESS PERIOD 170


 PROCESSING STORAGE PERIOD DATA
 END PROCESSING STORAGE PERIOD DATA


 STRESS PERIOD 170 IS TRANSIENT


 REUSING WELS FROM LAST STRESS PERIOD

 REUSING DRNS FROM LAST STRESS PERIOD

 REUSING RIVS FROM LAST STRESS PERIOD

 REUSING RIVS FROM LAST STRESS PERIOD

 REUSING RCHS FROM LAST STRESS PERIOD
 UBDSV06 SAVING              DRN IN MODEL GWF_1            PACKAGE GWF_1           CONNECTED TO MODEL GWF_1            PACKAGE DRN_SYS1         ON UNIT   1019 AT TIME STEP      1, STRESS PERIOD    170
 UBDSV06 SAVING              RIV IN MODEL GWF_1            PACKAGE GWF_1           CONNECTED TO MODEL GWF_1            PACKAGE RIV_SYS1         ON UNIT   1019 AT TIME STEP      1, STRESS PERIOD    170
 UBDSV06 SAVING              RIV IN MODEL GWF_1            PACKAGE GWF_1           CONNECTED TO MODEL GWF_1            PACKAGE RIV_SYS2         ON UNIT   1019 AT TIME STEP      1, STRESS PERIOD    170

 HEAD WILL BE SAVED ON UNIT 1018 AT END OF TIME STEP    1, STRESS PERIOD  170


  VOLUME BUDGET FOR ENTIRE MODEL AT END OF TIME STEP    1, STRESS PERIOD 170
  ---------------------------------------------------------------------------------------------------

     CUMULATIVE VOLUME      L**3       RATES FOR THIS TIME STEP      L**3/T          PACKAGE NAME    
     ------------------                 ------------------------                     ----------------

           IN:                                      IN:
           ---                                      ---
              STO-SS =      148663.1977                STO-SS =         824.5916     STORAGE                          
                 WEL =      137719.3840                   WEL =        1086.3925     RIV_CORR                         
                 DRN =           0.0000                   DRN =           0.0000     DRN_SYS1                         
                 RIV =      130956.6672                   RIV =        1097.4162     RIV_SYS1                         
                 RIV =           0.0000                   RIV =           0.0000     RIV_SYS2                         
                 RCH =      260533.6945                   RCH =         146.8362     RCH_MSW                          

            TOTAL IN =      677872.9433              TOTAL IN =        3155.2365

          OUT:                                     OUT:
          ----                                     ----
              STO-SS =      101547.7419                STO-SS =           0.7935     STORAGE                          
                 WEL =      183135.2811                   WEL =         757.8430     RIV_CORR                         
                 DRN =       44228.6005                   DRN =         245.0688     DRN_SYS1                         
                 RIV =      172872.1703                   RIV =         750.5329     RIV_SYS1                         
                 RIV =      119284.3019                   RIV =         658.8213     RIV_SYS2                         
                 RCH =       56806.8834                   RCH =         742.1927     RCH_MSW                          

           TOTAL OUT =      677874.9792             TOTAL OUT =        3155.2520

            IN - OUT =          -2.0359              IN - OUT =      -1.5496E-02

 PERCENT DISCREPANCY =          -0.00     PERCENT DISCREPANCY =          -0.00




         TIME SUMMARY AT END OF TIME STEP    1 IN STRESS PERIOD  170
                    SECONDS     MINUTES      HOURS       DAYS        YEARS
                    -----------------------------------------------------------
   TIME STEP LENGTH  86400.      1440.0      24.000      1.0000     2.73785E-03
 STRESS PERIOD TIME  86400.      1440.0      24.000      1.0000     2.73785E-03
         TOTAL TIME 1.46880E+07 2.44800E+05  4080.0      170.00     0.46543    


end timestep


start timestep kper="171" kstp="1" mode="normal"

 #Stressperiod Save Options

 BEGIN READING OUTPUT CONTROL FOR STRESS PERIOD 171
      ALL TIME STEPS WILL BE SAVED
      ALL TIME STEPS WILL BE SAVED

 END READING OUTPUT CONTROL FOR STRESS PERIOD 171


 PROCESSING STORAGE PERIOD DATA
 END PROCESSING STORAGE PERIOD DATA


 STRESS PERIOD 171 IS TRANSIENT


 REUSING WELS FROM LAST STRESS PERIOD

 REUSING DRNS FROM LAST STRESS PERIOD

 REUSING RIVS FROM LAST STRESS PERIOD

 REUSING RIVS FROM LAST STRESS PERIOD

 REUSING RCHS FROM LAST STRESS PERIOD
 UBDSV06 SAVING              DRN IN MODEL GWF_1            PACKAGE GWF_1           CONNECTED TO MODEL GWF_1            PACKAGE DRN_SYS1         ON UNIT   1019 AT TIME STEP      1, STRESS PERIOD    171
 UBDSV06 SAVING              RIV IN MODEL GWF_1            PACKAGE GWF_1           CONNECTED TO MODEL GWF_1            PACKAGE RIV_SYS1         ON UNIT   1019 AT TIME STEP      1, STRESS PERIOD    171
 UBDSV06 SAVING              RIV IN MODEL GWF_1            PACKAGE GWF_1           CONNECTED TO MODEL GWF_1            PACKAGE RIV_SYS2         ON UNIT   1019 AT TIME STEP      1, STRESS PERIOD    171

 HEAD WILL BE SAVED ON UNIT 1018 AT END OF TIME STEP    1, STRESS PERIOD  171


  VOLUME BUDGET FOR ENTIRE MODEL AT END OF TIME STEP    1, STRESS PERIOD 171
  ---------------------------------------------------------------------------------------------------

     CUMULATIVE VOLUME      L**3       RATES FOR THIS TIME STEP      L**3/T          PACKAGE NAME    
     ------------------                 ------------------------                     ----------------

           IN:                                      IN:
           ---                                      ---
              STO-SS =      149413.8058                STO-SS =         750.6081     STORAGE                          
                 WEL =      138816.8002                   WEL =        1097.4162     RIV_CORR                         
                 DRN =           0.0000                   DRN =           0.0000     DRN_SYS1                         
                 RIV =      132023.2831                   RIV =        1066.6159     RIV_SYS1                         
                 RIV =           0.0000                   RIV =           0.0000     RIV_SYS2                         
                 RCH =      260656.3021                   RCH =         122.6076     RCH_MSW                          

            TOTAL IN =      680910.1912              TOTAL IN =        3037.2478

          OUT:                                     OUT:
          ----                                     ----
              STO-SS =      101562.9370                STO-SS =          15.1950     STORAGE                          
                 WEL =      183885.8140                   WEL =         750.5329     RIV_CORR                         
                 DRN =       44472.2897                   DRN =         243.6891     DRN_SYS1                         
                 RIV =      173616.5854                   RIV =         744.4151     RIV_SYS1                         
                 RIV =      119939.8422                   RIV =         655.5403     RIV_SYS2                         
                 RCH =       57434.8014                   RCH =         627.9180     RCH_MSW                          

           TOTAL OUT =      680912.2697             TOTAL OUT =        3037.2904

            IN - OUT =          -2.0785              IN - OUT =      -4.2598E-02

 PERCENT DISCREPANCY =          -0.00     PERCENT DISCREPANCY =          -0.00




         TIME SUMMARY AT END OF TIME STEP    1 IN STRESS PERIOD  171
                    SECONDS     MINUTES      HOURS       DAYS        YEARS
                    -----------------------------------------------------------
   TIME STEP LENGTH  86400.      1440.0      24.000      1.0000     2.73785E-03
 STRESS PERIOD TIME  86400.      1440.0      24.000      1.0000     2.73785E-03
         TOTAL TIME 1.47744E+07 2.46240E+05  4104.0      171.00     0.46817    


end timestep


start timestep kper="172" kstp="1" mode="normal"

 #Stressperiod Save Options

 BEGIN READING OUTPUT CONTROL FOR STRESS PERIOD 172
      ALL TIME STEPS WILL BE SAVED
      ALL TIME STEPS WILL BE SAVED

 END READING OUTPUT CONTROL FOR STRESS PERIOD 172


 PROCESSING STORAGE PERIOD DATA
 END PROCESSING STORAGE PERIOD DATA


 STRESS PERIOD 172 IS TRANSIENT


 REUSING WELS FROM LAST STRESS PERIOD

 REUSING DRNS FROM LAST STRESS PERIOD

 REUSING RIVS FROM LAST STRESS PERIOD

 REUSING RIVS FROM LAST STRESS PERIOD

 REUSING RCHS FROM LAST STRESS PERIOD
 UBDSV06 SAVING              DRN IN MODEL GWF_1            PACKAGE GWF_1           CONNECTED TO MODEL GWF_1            PACKAGE DRN_SYS1         ON UNIT   1019 AT TIME STEP      1, STRESS PERIOD    172
 UBDSV06 SAVING              RIV IN MODEL GWF_1            PACKAGE GWF_1           CONNECTED TO MODEL GWF_1            PACKAGE RIV_SYS1         ON UNIT   1019 AT TIME STEP      1, STRESS PERIOD    172
 UBDSV06 SAVING              RIV IN MODEL GWF_1            PACKAGE GWF_1           CONNECTED TO MODEL GWF_1            PACKAGE RIV_SYS2         ON UNIT   1019 AT TIME STEP      1, STRESS PERIOD    172

 HEAD WILL BE SAVED ON UNIT 1018 AT END OF TIME STEP    1, STRESS PERIOD  172


  VOLUME BUDGET FOR ENTIRE MODEL AT END OF TIME STEP    1, STRESS PERIOD 172
  ---------------------------------------------------------------------------------------------------

     CUMULATIVE VOLUME      L**3       RATES FOR THIS TIME STEP      L**3/T          PACKAGE NAME    
     ------------------                 ------------------------                     ----------------

           IN:                                      IN:
           ---                                      ---
              STO-SS =      150175.3542                STO-SS =         761.5483     STORAGE                          
                 WEL =      139883.4161                   WEL =        1066.6159     RIV_CORR                         
                 DRN =           0.0000                   DRN =           0.0000     DRN_SYS1                         
                 RIV =      133142.7477                   RIV =        1119.4646     RIV_SYS1                         
                 RIV =           0.0000                   RIV =           0.0000     RIV_SYS2                         
                 RCH =      260756.6460                   RCH =         100.3439     RCH_MSW                          

            TOTAL IN =      683958.1639              TOTAL IN =        3047.9728

          OUT:                                     OUT:
          ----                                     ----
              STO-SS =      101562.9370                STO-SS =           0.0000     STORAGE                          
                 WEL =      184630.2291                   WEL =         744.4151     RIV_CORR                         
                 DRN =       44714.6663                   DRN =         242.3766     DRN_SYS1                         
                 RIV =      174354.6176                   RIV =         738.0322     RIV_SYS1                         
                 RIV =      120592.2828                   RIV =         652.4407     RIV_SYS2                         
                 RCH =       58105.5723                   RCH =         670.7709     RCH_MSW                          

           TOTAL OUT =      683960.3052             TOTAL OUT =        3048.0355

            IN - OUT =          -2.1412              IN - OUT =      -6.2743E-02

 PERCENT DISCREPANCY =          -0.00     PERCENT DISCREPANCY =          -0.00




         TIME SUMMARY AT END OF TIME STEP    1 IN STRESS PERIOD  172
                    SECONDS     MINUTES      HOURS       DAYS        YEARS
                    -----------------------------------------------------------
   TIME STEP LENGTH  86400.      1440.0      24.000      1.0000     2.73785E-03
 STRESS PERIOD TIME  86400.      1440.0      24.000      1.0000     2.73785E-03
         TOTAL TIME 1.48608E+07 2.47680E+05  4128.0      172.00     0.47091    


end timestep


start timestep kper="173" kstp="1" mode="normal"

 #Stressperiod Save Options

 BEGIN READING OUTPUT CONTROL FOR STRESS PERIOD 173
      ALL TIME STEPS WILL BE SAVED
      ALL TIME STEPS WILL BE SAVED

 END READING OUTPUT CONTROL FOR STRESS PERIOD 173


 PROCESSING STORAGE PERIOD DATA
 END PROCESSING STORAGE PERIOD DATA


 STRESS PERIOD 173 IS TRANSIENT


 REUSING WELS FROM LAST STRESS PERIOD

 REUSING DRNS FROM LAST STRESS PERIOD

 REUSING RIVS FROM LAST STRESS PERIOD

 REUSING RIVS FROM LAST STRESS PERIOD

 REUSING RCHS FROM LAST STRESS PERIOD
 UBDSV06 SAVING              DRN IN MODEL GWF_1            PACKAGE GWF_1           CONNECTED TO MODEL GWF_1            PACKAGE DRN_SYS1         ON UNIT   1019 AT TIME STEP      1, STRESS PERIOD    173
 UBDSV06 SAVING              RIV IN MODEL GWF_1            PACKAGE GWF_1           CONNECTED TO MODEL GWF_1            PACKAGE RIV_SYS1         ON UNIT   1019 AT TIME STEP      1, STRESS PERIOD    173
 UBDSV06 SAVING              RIV IN MODEL GWF_1            PACKAGE GWF_1           CONNECTED TO MODEL GWF_1            PACKAGE RIV_SYS2         ON UNIT   1019 AT TIME STEP      1, STRESS PERIOD    173

 HEAD WILL BE SAVED ON UNIT 1018 AT END OF TIME STEP    1, STRESS PERIOD  173


  VOLUME BUDGET FOR ENTIRE MODEL AT END OF TIME STEP    1, STRESS PERIOD 173
  ---------------------------------------------------------------------------------------------------

     CUMULATIVE VOLUME      L**3       RATES FOR THIS TIME STEP      L**3/T          PACKAGE NAME    
     ------------------                 ------------------------                     ----------------

           IN:                                      IN:
           ---                                      ---
              STO-SS =      150913.4754                STO-SS =         738.1212     STORAGE                          
                 WEL =      141002.8807                   WEL =        1119.4646     RIV_CORR                         
                 DRN =           0.0000                   DRN =           0.0000     DRN_SYS1                         
                 RIV =      134280.2044                   RIV =        1137.4567     RIV_SYS1                         
                 RIV =           0.0000                   RIV =           0.0000     RIV_SYS2                         
                 RCH =      260839.5498                   RCH =          82.9038     RCH_MSW                          

            TOTAL IN =      687036.1102              TOTAL IN =        3077.9463

          OUT:                                     OUT:
          ----                                     ----
              STO-SS =      101563.1050                STO-SS =           0.1680     STORAGE                          
                 WEL =      185368.2613                   WEL =         738.0322     RIV_CORR                         
                 DRN =       44955.7894                   DRN =         241.1232     DRN_SYS1                         
                 RIV =      175086.7936                   RIV =         732.1760     RIV_SYS1                         
                 RIV =      121241.7651                   RIV =         649.4823     RIV_SYS2                         
                 RCH =       58822.5465                   RCH =         716.9742     RCH_MSW                          

           TOTAL OUT =      687038.2609             TOTAL OUT =        3077.9557

            IN - OUT =          -2.1507              IN - OUT =      -9.4857E-03

 PERCENT DISCREPANCY =          -0.00     PERCENT DISCREPANCY =          -0.00




         TIME SUMMARY AT END OF TIME STEP    1 IN STRESS PERIOD  173
                    SECONDS     MINUTES      HOURS       DAYS        YEARS
                    -----------------------------------------------------------
   TIME STEP LENGTH  86400.      1440.0      24.000      1.0000     2.73785E-03
 STRESS PERIOD TIME  86400.      1440.0      24.000      1.0000     2.73785E-03
         TOTAL TIME 1.49472E+07 2.49120E+05  4152.0      173.00     0.47365    


end timestep


start timestep kper="174" kstp="1" mode="normal"

 #Stressperiod Save Options

 BEGIN READING OUTPUT CONTROL FOR STRESS PERIOD 174
      ALL TIME STEPS WILL BE SAVED
      ALL TIME STEPS WILL BE SAVED

 END READING OUTPUT CONTROL FOR STRESS PERIOD 174


 PROCESSING STORAGE PERIOD DATA
 END PROCESSING STORAGE PERIOD DATA


 STRESS PERIOD 174 IS TRANSIENT


 REUSING WELS FROM LAST STRESS PERIOD

 REUSING DRNS FROM LAST STRESS PERIOD

 REUSING RIVS FROM LAST STRESS PERIOD

 REUSING RIVS FROM LAST STRESS PERIOD

 REUSING RCHS FROM LAST STRESS PERIOD
 UBDSV06 SAVING              DRN IN MODEL GWF_1            PACKAGE GWF_1           CONNECTED TO MODEL GWF_1            PACKAGE DRN_SYS1         ON UNIT   1019 AT TIME STEP      1, STRESS PERIOD    174
 UBDSV06 SAVING              RIV IN MODEL GWF_1            PACKAGE GWF_1           CONNECTED TO MODEL GWF_1            PACKAGE RIV_SYS1         ON UNIT   1019 AT TIME STEP      1, STRESS PERIOD    174
 UBDSV06 SAVING              RIV IN MODEL GWF_1            PACKAGE GWF_1           CONNECTED TO MODEL GWF_1            PACKAGE RIV_SYS2         ON UNIT   1019 AT TIME STEP      1, STRESS PERIOD    174

 HEAD WILL BE SAVED ON UNIT 1018 AT END OF TIME STEP    1, STRESS PERIOD  174


  VOLUME BUDGET FOR ENTIRE MODEL AT END OF TIME STEP    1, STRESS PERIOD 174
  ---------------------------------------------------------------------------------------------------

     CUMULATIVE VOLUME      L**3       RATES FOR THIS TIME STEP      L**3/T          PACKAGE NAME    
     ------------------                 ------------------------                     ----------------

           IN:                                      IN:
           ---                                      ---
              STO-SS =      151779.0779                STO-SS =         865.6026     STORAGE                          
                 WEL =      142140.3374                   WEL =        1137.4567     RIV_CORR                         
                 DRN =           0.0000                   DRN =           0.0000     DRN_SYS1                         
                 RIV =      135545.3129                   RIV =        1265.1086     RIV_SYS1                         
                 RIV =           0.0000                   RIV =           0.0000     RIV_SYS2                         
                 RCH =      260907.4499                   RCH =          67.9001     RCH_MSW                          

            TOTAL IN =      690372.1781              TOTAL IN =        3336.0680

          OUT:                                     OUT:
          ----                                     ----
              STO-SS =      101563.1050                STO-SS =           0.0000     STORAGE                          
                 WEL =      186100.4373                   WEL =         732.1760     RIV_CORR                         
                 DRN =       45195.6680                   DRN =         239.8786     DRN_SYS1                         
                 RIV =      175811.8540                   RIV =         725.0604     RIV_SYS1                         
                 RIV =      121888.2841                   RIV =         646.5190     RIV_SYS2                         
                 RCH =       59815.0000                   RCH =         992.4535     RCH_MSW                          

           TOTAL OUT =      690374.3483             TOTAL OUT =        3336.0874

            IN - OUT =          -2.1702              IN - OUT =      -1.9464E-02

 PERCENT DISCREPANCY =          -0.00     PERCENT DISCREPANCY =          -0.00




         TIME SUMMARY AT END OF TIME STEP    1 IN STRESS PERIOD  174
                    SECONDS     MINUTES      HOURS       DAYS        YEARS
                    -----------------------------------------------------------
   TIME STEP LENGTH  86400.      1440.0      24.000      1.0000     2.73785E-03
 STRESS PERIOD TIME  86400.      1440.0      24.000      1.0000     2.73785E-03
         TOTAL TIME 1.50336E+07 2.50560E+05  4176.0      174.00     0.47639    


end timestep


start timestep kper="175" kstp="1" mode="normal"

 #Stressperiod Save Options

 BEGIN READING OUTPUT CONTROL FOR STRESS PERIOD 175
      ALL TIME STEPS WILL BE SAVED
      ALL TIME STEPS WILL BE SAVED

 END READING OUTPUT CONTROL FOR STRESS PERIOD 175


 PROCESSING STORAGE PERIOD DATA
 END PROCESSING STORAGE PERIOD DATA


 STRESS PERIOD 175 IS TRANSIENT


 REUSING WELS FROM LAST STRESS PERIOD

 REUSING DRNS FROM LAST STRESS PERIOD

 REUSING RIVS FROM LAST STRESS PERIOD

 REUSING RIVS FROM LAST STRESS PERIOD

 REUSING RCHS FROM LAST STRESS PERIOD
 UBDSV06 SAVING              DRN IN MODEL GWF_1            PACKAGE GWF_1           CONNECTED TO MODEL GWF_1            PACKAGE DRN_SYS1         ON UNIT   1019 AT TIME STEP      1, STRESS PERIOD    175
 UBDSV06 SAVING              RIV IN MODEL GWF_1            PACKAGE GWF_1           CONNECTED TO MODEL GWF_1            PACKAGE RIV_SYS1         ON UNIT   1019 AT TIME STEP      1, STRESS PERIOD    175
 UBDSV06 SAVING              RIV IN MODEL GWF_1            PACKAGE GWF_1           CONNECTED TO MODEL GWF_1            PACKAGE RIV_SYS2         ON UNIT   1019 AT TIME STEP      1, STRESS PERIOD    175

 HEAD WILL BE SAVED ON UNIT 1018 AT END OF TIME STEP    1, STRESS PERIOD  175


  VOLUME BUDGET FOR ENTIRE MODEL AT END OF TIME STEP    1, STRESS PERIOD 175
  ---------------------------------------------------------------------------------------------------

     CUMULATIVE VOLUME      L**3       RATES FOR THIS TIME STEP      L**3/T          PACKAGE NAME    
     ------------------                 ------------------------                     ----------------

           IN:                                      IN:
           ---                                      ---
              STO-SS =      152604.0984                STO-SS =         825.0205     STORAGE                          
                 WEL =      143405.4460                   WEL =        1265.1086     RIV_CORR                         
                 DRN =           0.0000                   DRN =           0.0000     DRN_SYS1                         
                 RIV =      136832.9058                   RIV =        1287.5929     RIV_SYS1                         
                 RIV =           0.0000                   RIV =           0.0000     RIV_SYS2                         
                 RCH =      260964.0077                   RCH =          56.5578     RCH_MSW                          

            TOTAL IN =      693806.4579              TOTAL IN =        3434.2798

          OUT:                                     OUT:
          ----                                     ----
              STO-SS =      101563.6790                STO-SS =           0.5741     STORAGE                          
                 WEL =      186825.4977                   WEL =         725.0604     RIV_CORR                         
                 DRN =       45434.2992                   DRN =         238.6312     DRN_SYS1                         
                 RIV =      176530.6588                   RIV =         718.8048     RIV_SYS1                         
                 RIV =      122531.8268                   RIV =         643.5428     RIV_SYS2                         
                 RCH =       60922.7197                   RCH =        1107.7198     RCH_MSW                          

           TOTAL OUT =      693808.6813             TOTAL OUT =        3434.3330

            IN - OUT =          -2.2234              IN - OUT =      -5.3223E-02

 PERCENT DISCREPANCY =          -0.00     PERCENT DISCREPANCY =          -0.00




         TIME SUMMARY AT END OF TIME STEP    1 IN STRESS PERIOD  175
                    SECONDS     MINUTES      HOURS       DAYS        YEARS
                    -----------------------------------------------------------
   TIME STEP LENGTH  86400.      1440.0      24.000      1.0000     2.73785E-03
 STRESS PERIOD TIME  86400.      1440.0      24.000      1.0000     2.73785E-03
         TOTAL TIME 1.51200E+07 2.52000E+05  4200.0      175.00     0.47912    


end timestep


start timestep kper="176" kstp="1" mode="normal"

 #Stressperiod Save Options

 BEGIN READING OUTPUT CONTROL FOR STRESS PERIOD 176
      ALL TIME STEPS WILL BE SAVED
      ALL TIME STEPS WILL BE SAVED

 END READING OUTPUT CONTROL FOR STRESS PERIOD 176


 PROCESSING STORAGE PERIOD DATA
 END PROCESSING STORAGE PERIOD DATA


 STRESS PERIOD 176 IS TRANSIENT


 REUSING WELS FROM LAST STRESS PERIOD

 REUSING DRNS FROM LAST STRESS PERIOD

 REUSING RIVS FROM LAST STRESS PERIOD

 REUSING RIVS FROM LAST STRESS PERIOD

 REUSING RCHS FROM LAST STRESS PERIOD
 UBDSV06 SAVING              DRN IN MODEL GWF_1            PACKAGE GWF_1           CONNECTED TO MODEL GWF_1            PACKAGE DRN_SYS1         ON UNIT   1019 AT TIME STEP      1, STRESS PERIOD    176
 UBDSV06 SAVING              RIV IN MODEL GWF_1            PACKAGE GWF_1           CONNECTED TO MODEL GWF_1            PACKAGE RIV_SYS1         ON UNIT   1019 AT TIME STEP      1, STRESS PERIOD    176
 UBDSV06 SAVING              RIV IN MODEL GWF_1            PACKAGE GWF_1           CONNECTED TO MODEL GWF_1            PACKAGE RIV_SYS2         ON UNIT   1019 AT TIME STEP      1, STRESS PERIOD    176

 HEAD WILL BE SAVED ON UNIT 1018 AT END OF TIME STEP    1, STRESS PERIOD  176


  VOLUME BUDGET FOR ENTIRE MODEL AT END OF TIME STEP    1, STRESS PERIOD 176
  ---------------------------------------------------------------------------------------------------

     CUMULATIVE VOLUME      L**3       RATES FOR THIS TIME STEP      L**3/T          PACKAGE NAME    
     ------------------                 ------------------------                     ----------------

           IN:                                      IN:
           ---                                      ---
              STO-SS =      153262.7593                STO-SS =         658.6609     STORAGE                          
                 WEL =      144693.0389                   WEL =        1287.5929     RIV_CORR                         
                 DRN =           0.0000                   DRN =           0.0000     DRN_SYS1                         
                 RIV =      137986.5943                   RIV =        1153.6884     RIV_SYS1                         
                 RIV =           0.0000                   RIV =           0.0000     RIV_SYS2                         
                 RCH =      261031.3662                   RCH =          67.3585     RCH_MSW                          

            TOTAL IN =      696973.7587              TOTAL IN =        3167.3008

          OUT:                                     OUT:
          ----                                     ----
              STO-SS =      101626.8899                STO-SS =          63.2108     STORAGE                          
                 WEL =      187544.3025                   WEL =         718.8048     RIV_CORR                         
                 DRN =       45671.7659                   DRN =         237.4666     DRN_SYS1                         
                 RIV =      177245.0165                   RIV =         714.3577     RIV_SYS1                         
                 RIV =      123172.6624                   RIV =         640.8356     RIV_SYS2                         
                 RCH =       61715.3320                   RCH =         792.6123     RCH_MSW                          

           TOTAL OUT =      696975.9691             TOTAL OUT =        3167.2878

            IN - OUT =          -2.2104              IN - OUT =       1.2963E-02

 PERCENT DISCREPANCY =          -0.00     PERCENT DISCREPANCY =           0.00




         TIME SUMMARY AT END OF TIME STEP    1 IN STRESS PERIOD  176
                    SECONDS     MINUTES      HOURS       DAYS        YEARS
                    -----------------------------------------------------------
   TIME STEP LENGTH  86400.      1440.0      24.000      1.0000     2.73785E-03
 STRESS PERIOD TIME  86400.      1440.0      24.000      1.0000     2.73785E-03
         TOTAL TIME 1.52064E+07 2.53440E+05  4224.0      176.00     0.48186    


end timestep


start timestep kper="177" kstp="1" mode="normal"

 #Stressperiod Save Options

 BEGIN READING OUTPUT CONTROL FOR STRESS PERIOD 177
      ALL TIME STEPS WILL BE SAVED
      ALL TIME STEPS WILL BE SAVED

 END READING OUTPUT CONTROL FOR STRESS PERIOD 177


 PROCESSING STORAGE PERIOD DATA
 END PROCESSING STORAGE PERIOD DATA


 STRESS PERIOD 177 IS TRANSIENT


 REUSING WELS FROM LAST STRESS PERIOD

 REUSING DRNS FROM LAST STRESS PERIOD

 REUSING RIVS FROM LAST STRESS PERIOD

 REUSING RIVS FROM LAST STRESS PERIOD

 REUSING RCHS FROM LAST STRESS PERIOD
 UBDSV06 SAVING              DRN IN MODEL GWF_1            PACKAGE GWF_1           CONNECTED TO MODEL GWF_1            PACKAGE DRN_SYS1         ON UNIT   1019 AT TIME STEP      1, STRESS PERIOD    177
 UBDSV06 SAVING              RIV IN MODEL GWF_1            PACKAGE GWF_1           CONNECTED TO MODEL GWF_1            PACKAGE RIV_SYS1         ON UNIT   1019 AT TIME STEP      1, STRESS PERIOD    177
 UBDSV06 SAVING              RIV IN MODEL GWF_1            PACKAGE GWF_1           CONNECTED TO MODEL GWF_1            PACKAGE RIV_SYS2         ON UNIT   1019 AT TIME STEP      1, STRESS PERIOD    177

 HEAD WILL BE SAVED ON UNIT 1018 AT END OF TIME STEP    1, STRESS PERIOD  177


  VOLUME BUDGET FOR ENTIRE MODEL AT END OF TIME STEP    1, STRESS PERIOD 177
  ---------------------------------------------------------------------------------------------------

     CUMULATIVE VOLUME      L**3       RATES FOR THIS TIME STEP      L**3/T          PACKAGE NAME    
     ------------------                 ------------------------                     ----------------

           IN:                                      IN:
           ---                                      ---
              STO-SS =      154037.9998                STO-SS =         775.2404     STORAGE                          
                 WEL =      145846.7273                   WEL =        1153.6884     RIV_CORR                         
                 DRN =           0.0000                   DRN =           0.0000     DRN_SYS1                         
                 RIV =      139294.6133                   RIV =        1308.0190     RIV_SYS1                         
                 RIV =           0.0000                   RIV =           0.0000     RIV_SYS2                         
                 RCH =      261071.7251                   RCH =          40.3589     RCH_MSW                          

            TOTAL IN =      700251.0655              TOTAL IN =        3277.3068

          OUT:                                     OUT:
          ----                                     ----
              STO-SS =      101626.8899                STO-SS =           0.0000     STORAGE                          
                 WEL =      188258.6602                   WEL =         714.3577     RIV_CORR                         
                 DRN =       45908.1064                   DRN =         236.3405     DRN_SYS1                         
                 RIV =      177953.3406                   RIV =         708.3241     RIV_SYS1                         
                 RIV =      123810.8176                   RIV =         638.1552     RIV_SYS2                         
                 RCH =       62695.4648                   RCH =         980.1328     RCH_MSW                          

           TOTAL OUT =      700253.2793             TOTAL OUT =        3277.3102

            IN - OUT =          -2.2138              IN - OUT =      -3.4114E-03

 PERCENT DISCREPANCY =          -0.00     PERCENT DISCREPANCY =          -0.00




         TIME SUMMARY AT END OF TIME STEP    1 IN STRESS PERIOD  177
                    SECONDS     MINUTES      HOURS       DAYS        YEARS
                    -----------------------------------------------------------
   TIME STEP LENGTH  86400.      1440.0      24.000      1.0000     2.73785E-03
 STRESS PERIOD TIME  86400.      1440.0      24.000      1.0000     2.73785E-03
         TOTAL TIME 1.52928E+07 2.54880E+05  4248.0      177.00     0.48460    


end timestep


start timestep kper="178" kstp="1" mode="normal"

 #Stressperiod Save Options

 BEGIN READING OUTPUT CONTROL FOR STRESS PERIOD 178
      ALL TIME STEPS WILL BE SAVED
      ALL TIME STEPS WILL BE SAVED

 END READING OUTPUT CONTROL FOR STRESS PERIOD 178


 PROCESSING STORAGE PERIOD DATA
 END PROCESSING STORAGE PERIOD DATA


 STRESS PERIOD 178 IS TRANSIENT


 REUSING WELS FROM LAST STRESS PERIOD

 REUSING DRNS FROM LAST STRESS PERIOD

 REUSING RIVS FROM LAST STRESS PERIOD

 REUSING RIVS FROM LAST STRESS PERIOD

 REUSING RCHS FROM LAST STRESS PERIOD
 UBDSV06 SAVING              DRN IN MODEL GWF_1            PACKAGE GWF_1           CONNECTED TO MODEL GWF_1            PACKAGE DRN_SYS1         ON UNIT   1019 AT TIME STEP      1, STRESS PERIOD    178
 UBDSV06 SAVING              RIV IN MODEL GWF_1            PACKAGE GWF_1           CONNECTED TO MODEL GWF_1            PACKAGE RIV_SYS1         ON UNIT   1019 AT TIME STEP      1, STRESS PERIOD    178
 UBDSV06 SAVING              RIV IN MODEL GWF_1            PACKAGE GWF_1           CONNECTED TO MODEL GWF_1            PACKAGE RIV_SYS2         ON UNIT   1019 AT TIME STEP      1, STRESS PERIOD    178

 HEAD WILL BE SAVED ON UNIT 1018 AT END OF TIME STEP    1, STRESS PERIOD  178


  VOLUME BUDGET FOR ENTIRE MODEL AT END OF TIME STEP    1, STRESS PERIOD 178
  ---------------------------------------------------------------------------------------------------

     CUMULATIVE VOLUME      L**3       RATES FOR THIS TIME STEP      L**3/T          PACKAGE NAME    
     ------------------                 ------------------------                     ----------------

           IN:                                      IN:
           ---                                      ---
              STO-SS =      154748.2541                STO-SS =         710.2543     STORAGE                          
                 WEL =      147154.7463                   WEL =        1308.0190     RIV_CORR                         
                 DRN =           0.0000                   DRN =           0.0000     DRN_SYS1                         
                 RIV =      140599.4738                   RIV =        1304.8605     RIV_SYS1                         
                 RIV =           0.0000                   RIV =           0.0000     RIV_SYS2                         
                 RCH =      261105.4591                   RCH =          33.7340     RCH_MSW                          

            TOTAL IN =      703607.9333              TOTAL IN =        3356.8678

          OUT:                                     OUT:
          ----                                     ----
              STO-SS =      101629.4260                STO-SS =           2.5361     STORAGE                          
                 WEL =      188966.9842                   WEL =         708.3241     RIV_CORR                         
                 DRN =       46143.3530                   DRN =         235.2467     DRN_SYS1                         
                 RIV =      178656.5862                   RIV =         703.2456     RIV_SYS1                         
                 RIV =      124446.3554                   RIV =         635.5379     RIV_SYS2                         
                 RCH =       63767.4226                   RCH =        1071.9578     RCH_MSW                          

           TOTAL OUT =      703610.1274             TOTAL OUT =        3356.8481

            IN - OUT =          -2.1941              IN - OUT =       1.9705E-02

 PERCENT DISCREPANCY =          -0.00     PERCENT DISCREPANCY =           0.00




         TIME SUMMARY AT END OF TIME STEP    1 IN STRESS PERIOD  178
                    SECONDS     MINUTES      HOURS       DAYS        YEARS
                    -----------------------------------------------------------
   TIME STEP LENGTH  86400.      1440.0      24.000      1.0000     2.73785E-03
 STRESS PERIOD TIME  86400.      1440.0      24.000      1.0000     2.73785E-03
         TOTAL TIME 1.53792E+07 2.56320E+05  4272.0      178.00     0.48734    


end timestep


start timestep kper="179" kstp="1" mode="normal"

 #Stressperiod Save Options

 BEGIN READING OUTPUT CONTROL FOR STRESS PERIOD 179
      ALL TIME STEPS WILL BE SAVED
      ALL TIME STEPS WILL BE SAVED

 END READING OUTPUT CONTROL FOR STRESS PERIOD 179


 PROCESSING STORAGE PERIOD DATA
 END PROCESSING STORAGE PERIOD DATA


 STRESS PERIOD 179 IS TRANSIENT


 REUSING WELS FROM LAST STRESS PERIOD

 REUSING DRNS FROM LAST STRESS PERIOD

 REUSING RIVS FROM LAST STRESS PERIOD

 REUSING RIVS FROM LAST STRESS PERIOD

 REUSING RCHS FROM LAST STRESS PERIOD
 UBDSV06 SAVING              DRN IN MODEL GWF_1            PACKAGE GWF_1           CONNECTED TO MODEL GWF_1            PACKAGE DRN_SYS1         ON UNIT   1019 AT TIME STEP      1, STRESS PERIOD    179
 UBDSV06 SAVING              RIV IN MODEL GWF_1            PACKAGE GWF_1           CONNECTED TO MODEL GWF_1            PACKAGE RIV_SYS1         ON UNIT   1019 AT TIME STEP      1, STRESS PERIOD    179
 UBDSV06 SAVING              RIV IN MODEL GWF_1            PACKAGE GWF_1           CONNECTED TO MODEL GWF_1            PACKAGE RIV_SYS2         ON UNIT   1019 AT TIME STEP      1, STRESS PERIOD    179

 HEAD WILL BE SAVED ON UNIT 1018 AT END OF TIME STEP    1, STRESS PERIOD  179


  VOLUME BUDGET FOR ENTIRE MODEL AT END OF TIME STEP    1, STRESS PERIOD 179
  ---------------------------------------------------------------------------------------------------

     CUMULATIVE VOLUME      L**3       RATES FOR THIS TIME STEP      L**3/T          PACKAGE NAME    
     ------------------                 ------------------------                     ----------------

           IN:                                      IN:
           ---                                      ---
              STO-SS =      155507.8994                STO-SS =         759.6454     STORAGE                          
                 WEL =      148459.6068                   WEL =        1304.8605     RIV_CORR                         
                 DRN =           0.0000                   DRN =           0.0000     DRN_SYS1                         
                 RIV =      141985.2120                   RIV =        1385.7382     RIV_SYS1                         
                 RIV =           0.0000                   RIV =           0.0000     RIV_SYS2                         
                 RCH =      261134.3496                   RCH =          28.8904     RCH_MSW                          

            TOTAL IN =      707087.0678              TOTAL IN =        3479.1345

          OUT:                                     OUT:
          ----                                     ----
              STO-SS =      101629.4260                STO-SS =           0.0000     STORAGE                          
                 WEL =      189670.2298                   WEL =         703.2456     RIV_CORR                         
                 DRN =       46377.5216                   DRN =         234.1685     DRN_SYS1                         
                 RIV =      179355.4485                   RIV =         698.8623     RIV_SYS1                         
                 RIV =      125079.2906                   RIV =         632.9352     RIV_SYS2                         
                 RCH =       64977.3552                   RCH =        1209.9326     RCH_MSW                          

           TOTAL OUT =      707089.2717             TOTAL OUT =        3479.1442

            IN - OUT =          -2.2038              IN - OUT =      -9.7106E-03

 PERCENT DISCREPANCY =          -0.00     PERCENT DISCREPANCY =          -0.00




         TIME SUMMARY AT END OF TIME STEP    1 IN STRESS PERIOD  179
                    SECONDS     MINUTES      HOURS       DAYS        YEARS
                    -----------------------------------------------------------
   TIME STEP LENGTH  86400.      1440.0      24.000      1.0000     2.73785E-03
 STRESS PERIOD TIME  86400.      1440.0      24.000      1.0000     2.73785E-03
         TOTAL TIME 1.54656E+07 2.57760E+05  4296.0      179.00     0.49008    


end timestep


start timestep kper="180" kstp="1" mode="normal"

 #Stressperiod Save Options

 BEGIN READING OUTPUT CONTROL FOR STRESS PERIOD 180
      ALL TIME STEPS WILL BE SAVED
      ALL TIME STEPS WILL BE SAVED

 END READING OUTPUT CONTROL FOR STRESS PERIOD 180


 PROCESSING STORAGE PERIOD DATA
 END PROCESSING STORAGE PERIOD DATA


 STRESS PERIOD 180 IS TRANSIENT


 REUSING WELS FROM LAST STRESS PERIOD

 REUSING DRNS FROM LAST STRESS PERIOD

 REUSING RIVS FROM LAST STRESS PERIOD

 REUSING RIVS FROM LAST STRESS PERIOD

 REUSING RCHS FROM LAST STRESS PERIOD
 UBDSV06 SAVING              DRN IN MODEL GWF_1            PACKAGE GWF_1           CONNECTED TO MODEL GWF_1            PACKAGE DRN_SYS1         ON UNIT   1019 AT TIME STEP      1, STRESS PERIOD    180
 UBDSV06 SAVING              RIV IN MODEL GWF_1            PACKAGE GWF_1           CONNECTED TO MODEL GWF_1            PACKAGE RIV_SYS1         ON UNIT   1019 AT TIME STEP      1, STRESS PERIOD    180
 UBDSV06 SAVING              RIV IN MODEL GWF_1            PACKAGE GWF_1           CONNECTED TO MODEL GWF_1            PACKAGE RIV_SYS2         ON UNIT   1019 AT TIME STEP      1, STRESS PERIOD    180

 HEAD WILL BE SAVED ON UNIT 1018 AT END OF TIME STEP    1, STRESS PERIOD  180


  VOLUME BUDGET FOR ENTIRE MODEL AT END OF TIME STEP    1, STRESS PERIOD 180
  ---------------------------------------------------------------------------------------------------

     CUMULATIVE VOLUME      L**3       RATES FOR THIS TIME STEP      L**3/T          PACKAGE NAME    
     ------------------                 ------------------------                     ----------------

           IN:                                      IN:
           ---                                      ---
              STO-SS =      156206.0983                STO-SS =         698.1988     STORAGE                          
                 WEL =      149845.3450                   WEL =        1385.7382     RIV_CORR                         
                 DRN =           0.0000                   DRN =           0.0000     DRN_SYS1                         
                 RIV =      143368.0529                   RIV =        1382.8410     RIV_SYS1                         
                 RIV =           0.0000                   RIV =           0.0000     RIV_SYS2                         
                 RCH =      261159.1846                   RCH =          24.8350     RCH_MSW                          

            TOTAL IN =      710578.6808              TOTAL IN =        3491.6130

          OUT:                                     OUT:
          ----                                     ----
              STO-SS =      101632.1280                STO-SS =           2.7020     STORAGE                          
                 WEL =      190369.0921                   WEL =         698.8623     RIV_CORR                         
                 DRN =       46610.6393                   DRN =         233.1177     DRN_SYS1                         
                 RIV =      180050.2403                   RIV =         694.7918     RIV_SYS1                         
                 RIV =      125709.6817                   RIV =         630.3911     RIV_SYS2                         
                 RCH =       66209.1162                   RCH =        1231.7610     RCH_MSW                          

           TOTAL OUT =      710580.8975             TOTAL OUT =        3491.6259

            IN - OUT =          -2.2167              IN - OUT =      -1.2870E-02

 PERCENT DISCREPANCY =          -0.00     PERCENT DISCREPANCY =          -0.00




         TIME SUMMARY AT END OF TIME STEP    1 IN STRESS PERIOD  180
                    SECONDS     MINUTES      HOURS       DAYS        YEARS
                    -----------------------------------------------------------
   TIME STEP LENGTH  86400.      1440.0      24.000      1.0000     2.73785E-03
 STRESS PERIOD TIME  86400.      1440.0      24.000      1.0000     2.73785E-03
         TOTAL TIME 1.55520E+07 2.59200E+05  4320.0      180.00     0.49281    


end timestep


start timestep kper="181" kstp="1" mode="normal"

 #Stressperiod Save Options

 BEGIN READING OUTPUT CONTROL FOR STRESS PERIOD 181
      ALL TIME STEPS WILL BE SAVED
      ALL TIME STEPS WILL BE SAVED

 END READING OUTPUT CONTROL FOR STRESS PERIOD 181


 PROCESSING STORAGE PERIOD DATA
 END PROCESSING STORAGE PERIOD DATA


 STRESS PERIOD 181 IS TRANSIENT


 REUSING WELS FROM LAST STRESS PERIOD

 REUSING DRNS FROM LAST STRESS PERIOD

 REUSING RIVS FROM LAST STRESS PERIOD

 REUSING RIVS FROM LAST STRESS PERIOD

 REUSING RCHS FROM LAST STRESS PERIOD
 UBDSV06 SAVING              DRN IN MODEL GWF_1            PACKAGE GWF_1           CONNECTED TO MODEL GWF_1            PACKAGE DRN_SYS1         ON UNIT   1019 AT TIME STEP      1, STRESS PERIOD    181
 UBDSV06 SAVING              RIV IN MODEL GWF_1            PACKAGE GWF_1           CONNECTED TO MODEL GWF_1            PACKAGE RIV_SYS1         ON UNIT   1019 AT TIME STEP      1, STRESS PERIOD    181
 UBDSV06 SAVING              RIV IN MODEL GWF_1            PACKAGE GWF_1           CONNECTED TO MODEL GWF_1            PACKAGE RIV_SYS2         ON UNIT   1019 AT TIME STEP      1, STRESS PERIOD    181

 HEAD WILL BE SAVED ON UNIT 1018 AT END OF TIME STEP    1, STRESS PERIOD  181


  VOLUME BUDGET FOR ENTIRE MODEL AT END OF TIME STEP    1, STRESS PERIOD 181
  ---------------------------------------------------------------------------------------------------

     CUMULATIVE VOLUME      L**3       RATES FOR THIS TIME STEP      L**3/T          PACKAGE NAME    
     ------------------                 ------------------------                     ----------------

           IN:                                      IN:
           ---                                      ---
              STO-SS =      156882.3746                STO-SS =         676.2763     STORAGE                          
                 WEL =      151228.1860                   WEL =        1382.8410     RIV_CORR                         
                 DRN =           0.0000                   DRN =           0.0000     DRN_SYS1                         
                 RIV =      144771.8533                   RIV =        1403.8004     RIV_SYS1                         
                 RIV =           0.0000                   RIV =           0.0000     RIV_SYS2                         
                 RCH =      261180.5239                   RCH =          21.3393     RCH_MSW                          

            TOTAL IN =      714062.9378              TOTAL IN =        3484.2570

          OUT:                                     OUT:
          ----                                     ----
              STO-SS =      101632.1280                STO-SS =           0.0000     STORAGE                          
                 WEL =      191063.8839                   WEL =         694.7918     RIV_CORR                         
                 DRN =       46842.7346                   DRN =         232.0953     DRN_SYS1                         
                 RIV =      180741.0959                   RIV =         690.8556     RIV_SYS1                         
                 RIV =      126337.6205                   RIV =         627.9388     RIV_SYS2                         
                 RCH =       67447.7027                   RCH =        1238.5865     RCH_MSW                          

           TOTAL OUT =      714065.1655             TOTAL OUT =        3484.2680

            IN - OUT =          -2.2277              IN - OUT =      -1.1022E-02

 PERCENT DISCREPANCY =          -0.00     PERCENT DISCREPANCY =          -0.00




         TIME SUMMARY AT END OF TIME STEP    1 IN STRESS PERIOD  181
                    SECONDS     MINUTES      HOURS       DAYS        YEARS
                    -----------------------------------------------------------
   TIME STEP LENGTH  86400.      1440.0      24.000      1.0000     2.73785E-03
 STRESS PERIOD TIME  86400.      1440.0      24.000      1.0000     2.73785E-03
         TOTAL TIME 1.56384E+07 2.60640E+05  4344.0      181.00     0.49555    


end timestep


start timestep kper="182" kstp="1" mode="normal"

 #Stressperiod Save Options

 BEGIN READING OUTPUT CONTROL FOR STRESS PERIOD 182
      ALL TIME STEPS WILL BE SAVED
      ALL TIME STEPS WILL BE SAVED

 END READING OUTPUT CONTROL FOR STRESS PERIOD 182


 PROCESSING STORAGE PERIOD DATA
 END PROCESSING STORAGE PERIOD DATA


 STRESS PERIOD 182 IS TRANSIENT


 REUSING WELS FROM LAST STRESS PERIOD

 REUSING DRNS FROM LAST STRESS PERIOD

 REUSING RIVS FROM LAST STRESS PERIOD

 REUSING RIVS FROM LAST STRESS PERIOD

 REUSING RCHS FROM LAST STRESS PERIOD
 UBDSV06 SAVING              DRN IN MODEL GWF_1            PACKAGE GWF_1           CONNECTED TO MODEL GWF_1            PACKAGE DRN_SYS1         ON UNIT   1019 AT TIME STEP      1, STRESS PERIOD    182
 UBDSV06 SAVING              RIV IN MODEL GWF_1            PACKAGE GWF_1           CONNECTED TO MODEL GWF_1            PACKAGE RIV_SYS1         ON UNIT   1019 AT TIME STEP      1, STRESS PERIOD    182
 UBDSV06 SAVING              RIV IN MODEL GWF_1            PACKAGE GWF_1           CONNECTED TO MODEL GWF_1            PACKAGE RIV_SYS2         ON UNIT   1019 AT TIME STEP      1, STRESS PERIOD    182

 HEAD WILL BE SAVED ON UNIT 1018 AT END OF TIME STEP    1, STRESS PERIOD  182


  VOLUME BUDGET FOR ENTIRE MODEL AT END OF TIME STEP    1, STRESS PERIOD 182
  ---------------------------------------------------------------------------------------------------

     CUMULATIVE VOLUME      L**3       RATES FOR THIS TIME STEP      L**3/T          PACKAGE NAME    
     ------------------                 ------------------------                     ----------------

           IN:                                      IN:
           ---                                      ---
              STO-SS =      157584.1004                STO-SS =         701.7258     STORAGE                          
                 WEL =      152631.9864                   WEL =        1403.8004     RIV_CORR                         
                 DRN =           0.0000                   DRN =           0.0000     DRN_SYS1                         
                 RIV =      146239.8108                   RIV =        1467.9575     RIV_SYS1                         
                 RIV =           0.0000                   RIV =           0.0000     RIV_SYS2                         
                 RCH =      261198.5614                   RCH =          18.0375     RCH_MSW                          

            TOTAL IN =      717654.4590              TOTAL IN =        3591.5212

          OUT:                                     OUT:
          ----                                     ----
              STO-SS =      101632.1280                STO-SS =           0.0000     STORAGE                          
                 WEL =      191754.7395                   WEL =         690.8556     RIV_CORR                         
                 DRN =       47073.8295                   DRN =         231.0949     DRN_SYS1                         
                 RIV =      181427.9556                   RIV =         686.8597     RIV_SYS1                         
                 RIV =      126963.1676                   RIV =         625.5471     RIV_SYS2                         
                 RCH =       68804.9334                   RCH =        1357.2307     RCH_MSW                          

           TOTAL OUT =      717656.7535             TOTAL OUT =        3591.5880

            IN - OUT =          -2.2945              IN - OUT =      -6.6784E-02

 PERCENT DISCREPANCY =          -0.00     PERCENT DISCREPANCY =          -0.00




         TIME SUMMARY AT END OF TIME STEP    1 IN STRESS PERIOD  182
                    SECONDS     MINUTES      HOURS       DAYS        YEARS
                    -----------------------------------------------------------
   TIME STEP LENGTH  86400.      1440.0      24.000      1.0000     2.73785E-03
 STRESS PERIOD TIME  86400.      1440.0      24.000      1.0000     2.73785E-03
         TOTAL TIME 1.57248E+07 2.62080E+05  4368.0      182.00     0.49829    


end timestep


start timestep kper="183" kstp="1" mode="normal"

 #Stressperiod Save Options

 BEGIN READING OUTPUT CONTROL FOR STRESS PERIOD 183
      ALL TIME STEPS WILL BE SAVED
      ALL TIME STEPS WILL BE SAVED

 END READING OUTPUT CONTROL FOR STRESS PERIOD 183


 PROCESSING STORAGE PERIOD DATA
 END PROCESSING STORAGE PERIOD DATA


 STRESS PERIOD 183 IS TRANSIENT


 REUSING WELS FROM LAST STRESS PERIOD

 REUSING DRNS FROM LAST STRESS PERIOD

 REUSING RIVS FROM LAST STRESS PERIOD

 REUSING RIVS FROM LAST STRESS PERIOD

 REUSING RCHS FROM LAST STRESS PERIOD
 UBDSV06 SAVING              DRN IN MODEL GWF_1            PACKAGE GWF_1           CONNECTED TO MODEL GWF_1            PACKAGE DRN_SYS1         ON UNIT   1019 AT TIME STEP      1, STRESS PERIOD    183
 UBDSV06 SAVING              RIV IN MODEL GWF_1            PACKAGE GWF_1           CONNECTED TO MODEL GWF_1            PACKAGE RIV_SYS1         ON UNIT   1019 AT TIME STEP      1, STRESS PERIOD    183
 UBDSV06 SAVING              RIV IN MODEL GWF_1            PACKAGE GWF_1           CONNECTED TO MODEL GWF_1            PACKAGE RIV_SYS2         ON UNIT   1019 AT TIME STEP      1, STRESS PERIOD    183

 HEAD WILL BE SAVED ON UNIT 1018 AT END OF TIME STEP    1, STRESS PERIOD  183


  VOLUME BUDGET FOR ENTIRE MODEL AT END OF TIME STEP    1, STRESS PERIOD 183
  ---------------------------------------------------------------------------------------------------

     CUMULATIVE VOLUME      L**3       RATES FOR THIS TIME STEP      L**3/T          PACKAGE NAME    
     ------------------                 ------------------------                     ----------------

           IN:                                      IN:
           ---                                      ---
              STO-SS =      158219.4198                STO-SS =         635.3194     STORAGE                          
                 WEL =      154099.9438                   WEL =        1467.9575     RIV_CORR                         
                 DRN =           0.0000                   DRN =           0.0000     DRN_SYS1                         
                 RIV =      147695.4045                   RIV =        1455.5937     RIV_SYS1                         
                 RIV =           0.0000                   RIV =           0.0000     RIV_SYS2                         
                 RCH =      261213.6401                   RCH =          15.0787     RCH_MSW                          

            TOTAL IN =      721228.4082              TOTAL IN =        3573.9492

          OUT:                                     OUT:
          ----                                     ----
              STO-SS =      101637.1845                STO-SS =           5.0565     STORAGE                          
                 WEL =      192441.5992                   WEL =         686.8597     RIV_CORR                         
                 DRN =       47303.9585                   DRN =         230.1290     DRN_SYS1                         
                 RIV =      182111.1980                   RIV =         683.2425     RIV_SYS1                         
                 RIV =      127586.4175                   RIV =         623.2500     RIV_SYS2                         
                 RCH =       70150.3762                   RCH =        1345.4428     RCH_MSW                          

           TOTAL OUT =      721230.7339             TOTAL OUT =        3573.9804

            IN - OUT =          -2.3257              IN - OUT =      -3.1174E-02

 PERCENT DISCREPANCY =          -0.00     PERCENT DISCREPANCY =          -0.00




         TIME SUMMARY AT END OF TIME STEP    1 IN STRESS PERIOD  183
                    SECONDS     MINUTES      HOURS       DAYS        YEARS
                    -----------------------------------------------------------
   TIME STEP LENGTH  86400.      1440.0      24.000      1.0000     2.73785E-03
 STRESS PERIOD TIME  86400.      1440.0      24.000      1.0000     2.73785E-03
         TOTAL TIME 1.58112E+07 2.63520E+05  4392.0      183.00     0.50103    


end timestep


start timestep kper="184" kstp="1" mode="normal"

 #Stressperiod Save Options

 BEGIN READING OUTPUT CONTROL FOR STRESS PERIOD 184
      ALL TIME STEPS WILL BE SAVED
      ALL TIME STEPS WILL BE SAVED

 END READING OUTPUT CONTROL FOR STRESS PERIOD 184


 PROCESSING STORAGE PERIOD DATA
 END PROCESSING STORAGE PERIOD DATA


 STRESS PERIOD 184 IS TRANSIENT


 REUSING WELS FROM LAST STRESS PERIOD

 REUSING DRNS FROM LAST STRESS PERIOD

 REUSING RIVS FROM LAST STRESS PERIOD

 REUSING RIVS FROM LAST STRESS PERIOD

 REUSING RCHS FROM LAST STRESS PERIOD
 UBDSV06 SAVING              DRN IN MODEL GWF_1            PACKAGE GWF_1           CONNECTED TO MODEL GWF_1            PACKAGE DRN_SYS1         ON UNIT   1019 AT TIME STEP      1, STRESS PERIOD    184
 UBDSV06 SAVING              RIV IN MODEL GWF_1            PACKAGE GWF_1           CONNECTED TO MODEL GWF_1            PACKAGE RIV_SYS1         ON UNIT   1019 AT TIME STEP      1, STRESS PERIOD    184
 UBDSV06 SAVING              RIV IN MODEL GWF_1            PACKAGE GWF_1           CONNECTED TO MODEL GWF_1            PACKAGE RIV_SYS2         ON UNIT   1019 AT TIME STEP      1, STRESS PERIOD    184

 HEAD WILL BE SAVED ON UNIT 1018 AT END OF TIME STEP    1, STRESS PERIOD  184


  VOLUME BUDGET FOR ENTIRE MODEL AT END OF TIME STEP    1, STRESS PERIOD 184
  ---------------------------------------------------------------------------------------------------

     CUMULATIVE VOLUME      L**3       RATES FOR THIS TIME STEP      L**3/T          PACKAGE NAME    
     ------------------                 ------------------------                     ----------------

           IN:                                      IN:
           ---                                      ---
              STO-SS =      158853.2523                STO-SS =         633.8325     STORAGE                          
                 WEL =      155555.5375                   WEL =        1455.5937     RIV_CORR                         
                 DRN =           0.0000                   DRN =           0.0000     DRN_SYS1                         
                 RIV =      149188.5445                   RIV =        1493.1401     RIV_SYS1                         
                 RIV =           0.0000                   RIV =           0.0000     RIV_SYS2                         
                 RCH =      261226.3470                   RCH =          12.7069     RCH_MSW                          

            TOTAL IN =      724823.6813              TOTAL IN =        3595.2731

          OUT:                                     OUT:
          ----                                     ----
              STO-SS =      101637.1845                STO-SS =           0.0000     STORAGE                          
                 WEL =      193124.8417                   WEL =         683.2425     RIV_CORR                         
                 DRN =       47533.1573                   DRN =         229.1988     DRN_SYS1                         
                 RIV =      182790.8786                   RIV =         679.6806     RIV_SYS1                         
                 RIV =      128207.4569                   RIV =         621.0393     RIV_SYS2                         
                 RCH =       71532.4916                   RCH =        1382.1154     RCH_MSW                          

           TOTAL OUT =      724826.0106             TOTAL OUT =        3595.2767

            IN - OUT =          -2.3293              IN - OUT =      -3.6086E-03

 PERCENT DISCREPANCY =          -0.00     PERCENT DISCREPANCY =          -0.00




         TIME SUMMARY AT END OF TIME STEP    1 IN STRESS PERIOD  184
                    SECONDS     MINUTES      HOURS       DAYS        YEARS
                    -----------------------------------------------------------
   TIME STEP LENGTH  86400.      1440.0      24.000      1.0000     2.73785E-03
 STRESS PERIOD TIME  86400.      1440.0      24.000      1.0000     2.73785E-03
         TOTAL TIME 1.58976E+07 2.64960E+05  4416.0      184.00     0.50376    


end timestep


start timestep kper="185" kstp="1" mode="normal"

 #Stressperiod Save Options

 BEGIN READING OUTPUT CONTROL FOR STRESS PERIOD 185
      ALL TIME STEPS WILL BE SAVED
      ALL TIME STEPS WILL BE SAVED

 END READING OUTPUT CONTROL FOR STRESS PERIOD 185


 PROCESSING STORAGE PERIOD DATA
 END PROCESSING STORAGE PERIOD DATA


 STRESS PERIOD 185 IS TRANSIENT


 REUSING WELS FROM LAST STRESS PERIOD

 REUSING DRNS FROM LAST STRESS PERIOD

 REUSING RIVS FROM LAST STRESS PERIOD

 REUSING RIVS FROM LAST STRESS PERIOD

 REUSING RCHS FROM LAST STRESS PERIOD
 UBDSV06 SAVING              DRN IN MODEL GWF_1            PACKAGE GWF_1           CONNECTED TO MODEL GWF_1            PACKAGE DRN_SYS1         ON UNIT   1019 AT TIME STEP      1, STRESS PERIOD    185
 UBDSV06 SAVING              RIV IN MODEL GWF_1            PACKAGE GWF_1           CONNECTED TO MODEL GWF_1            PACKAGE RIV_SYS1         ON UNIT   1019 AT TIME STEP      1, STRESS PERIOD    185
 UBDSV06 SAVING              RIV IN MODEL GWF_1            PACKAGE GWF_1           CONNECTED TO MODEL GWF_1            PACKAGE RIV_SYS2         ON UNIT   1019 AT TIME STEP      1, STRESS PERIOD    185

 HEAD WILL BE SAVED ON UNIT 1018 AT END OF TIME STEP    1, STRESS PERIOD  185


  VOLUME BUDGET FOR ENTIRE MODEL AT END OF TIME STEP    1, STRESS PERIOD 185
  ---------------------------------------------------------------------------------------------------

     CUMULATIVE VOLUME      L**3       RATES FOR THIS TIME STEP      L**3/T          PACKAGE NAME    
     ------------------                 ------------------------                     ----------------

           IN:                                      IN:
           ---                                      ---
              STO-SS =      159415.7949                STO-SS =         562.5426     STORAGE                          
                 WEL =      157048.6776                   WEL =        1493.1401     RIV_CORR                         
                 DRN =           0.0000                   DRN =           0.0000     DRN_SYS1                         
                 RIV =      150649.3341                   RIV =        1460.7896     RIV_SYS1                         
                 RIV =           0.0000                   RIV =           0.0000     RIV_SYS2                         
                 RCH =      261239.5554                   RCH =          13.2084     RCH_MSW                          

            TOTAL IN =      728353.3620              TOTAL IN =        3529.6807

          OUT:                                     OUT:
          ----                                     ----
              STO-SS =      101648.2948                STO-SS =          11.1103     STORAGE                          
                 WEL =      193804.5223                   WEL =         679.6806     RIV_CORR                         
                 DRN =       47761.4785                   DRN =         228.3212     DRN_SYS1                         
                 RIV =      183467.3765                   RIV =         676.4979     RIV_SYS1                         
                 RIV =      128826.4104                   RIV =         618.9536     RIV_SYS2                         
                 RCH =       72847.6693                   RCH =        1315.1776     RCH_MSW                          

           TOTAL OUT =      728355.7519             TOTAL OUT =        3529.7413

            IN - OUT =          -2.3898              IN - OUT =      -6.0543E-02

 PERCENT DISCREPANCY =          -0.00     PERCENT DISCREPANCY =          -0.00




         TIME SUMMARY AT END OF TIME STEP    1 IN STRESS PERIOD  185
                    SECONDS     MINUTES      HOURS       DAYS        YEARS
                    -----------------------------------------------------------
   TIME STEP LENGTH  86400.      1440.0      24.000      1.0000     2.73785E-03
 STRESS PERIOD TIME  86400.      1440.0      24.000      1.0000     2.73785E-03
         TOTAL TIME 1.59840E+07 2.66400E+05  4440.0      185.00     0.50650    


end timestep


start timestep kper="186" kstp="1" mode="normal"

 #Stressperiod Save Options

 BEGIN READING OUTPUT CONTROL FOR STRESS PERIOD 186
      ALL TIME STEPS WILL BE SAVED
      ALL TIME STEPS WILL BE SAVED

 END READING OUTPUT CONTROL FOR STRESS PERIOD 186


 PROCESSING STORAGE PERIOD DATA
 END PROCESSING STORAGE PERIOD DATA


 STRESS PERIOD 186 IS TRANSIENT


 REUSING WELS FROM LAST STRESS PERIOD

 REUSING DRNS FROM LAST STRESS PERIOD

 REUSING RIVS FROM LAST STRESS PERIOD

 REUSING RIVS FROM LAST STRESS PERIOD

 REUSING RCHS FROM LAST STRESS PERIOD
 UBDSV06 SAVING              DRN IN MODEL GWF_1            PACKAGE GWF_1           CONNECTED TO MODEL GWF_1            PACKAGE DRN_SYS1         ON UNIT   1019 AT TIME STEP      1, STRESS PERIOD    186
 UBDSV06 SAVING              RIV IN MODEL GWF_1            PACKAGE GWF_1           CONNECTED TO MODEL GWF_1            PACKAGE RIV_SYS1         ON UNIT   1019 AT TIME STEP      1, STRESS PERIOD    186
 UBDSV06 SAVING              RIV IN MODEL GWF_1            PACKAGE GWF_1           CONNECTED TO MODEL GWF_1            PACKAGE RIV_SYS2         ON UNIT   1019 AT TIME STEP      1, STRESS PERIOD    186

 HEAD WILL BE SAVED ON UNIT 1018 AT END OF TIME STEP    1, STRESS PERIOD  186


  VOLUME BUDGET FOR ENTIRE MODEL AT END OF TIME STEP    1, STRESS PERIOD 186
  ---------------------------------------------------------------------------------------------------

     CUMULATIVE VOLUME      L**3       RATES FOR THIS TIME STEP      L**3/T          PACKAGE NAME    
     ------------------                 ------------------------                     ----------------

           IN:                                      IN:
           ---                                      ---
              STO-SS =      159935.5833                STO-SS =         519.7883     STORAGE                          
                 WEL =      158509.4672                   WEL =        1460.7896     RIV_CORR                         
                 DRN =           0.0000                   DRN =           0.0000     DRN_SYS1                         
                 RIV =      152106.4333                   RIV =        1457.0992     RIV_SYS1                         
                 RIV =           0.0000                   RIV =           0.0000     RIV_SYS2                         
                 RCH =      261259.8850                   RCH =          20.3295     RCH_MSW                          

            TOTAL IN =      731811.3687              TOTAL IN =        3458.0067

          OUT:                                     OUT:
          ----                                     ----
              STO-SS =      101652.6592                STO-SS =           4.3643     STORAGE                          
                 WEL =      194481.0202                   WEL =         676.4979     RIV_CORR                         
                 DRN =       47988.9800                   DRN =         227.5015     DRN_SYS1                         
                 RIV =      184140.8795                   RIV =         673.5030     RIV_SYS1                         
                 RIV =      129443.4277                   RIV =         617.0173     RIV_SYS2                         
                 RCH =       74106.8100                   RCH =        1259.1407     RCH_MSW                          

           TOTAL OUT =      731813.7766             TOTAL OUT =        3458.0247

            IN - OUT =          -2.4079              IN - OUT =      -1.8031E-02

 PERCENT DISCREPANCY =          -0.00     PERCENT DISCREPANCY =          -0.00




         TIME SUMMARY AT END OF TIME STEP    1 IN STRESS PERIOD  186
                    SECONDS     MINUTES      HOURS       DAYS        YEARS
                    -----------------------------------------------------------
   TIME STEP LENGTH  86400.      1440.0      24.000      1.0000     2.73785E-03
 STRESS PERIOD TIME  86400.      1440.0      24.000      1.0000     2.73785E-03
         TOTAL TIME 1.60704E+07 2.67840E+05  4464.0      186.00     0.50924    


end timestep


start timestep kper="187" kstp="1" mode="normal"

 #Stressperiod Save Options

 BEGIN READING OUTPUT CONTROL FOR STRESS PERIOD 187
      ALL TIME STEPS WILL BE SAVED
      ALL TIME STEPS WILL BE SAVED

 END READING OUTPUT CONTROL FOR STRESS PERIOD 187


 PROCESSING STORAGE PERIOD DATA
 END PROCESSING STORAGE PERIOD DATA


 STRESS PERIOD 187 IS TRANSIENT


 REUSING WELS FROM LAST STRESS PERIOD

 REUSING DRNS FROM LAST STRESS PERIOD

 REUSING RIVS FROM LAST STRESS PERIOD

 REUSING RIVS FROM LAST STRESS PERIOD

 REUSING RCHS FROM LAST STRESS PERIOD
 UBDSV06 SAVING              DRN IN MODEL GWF_1            PACKAGE GWF_1           CONNECTED TO MODEL GWF_1            PACKAGE DRN_SYS1         ON UNIT   1019 AT TIME STEP      1, STRESS PERIOD    187
 UBDSV06 SAVING              RIV IN MODEL GWF_1            PACKAGE GWF_1           CONNECTED TO MODEL GWF_1            PACKAGE RIV_SYS1         ON UNIT   1019 AT TIME STEP      1, STRESS PERIOD    187
 UBDSV06 SAVING              RIV IN MODEL GWF_1            PACKAGE GWF_1           CONNECTED TO MODEL GWF_1            PACKAGE RIV_SYS2         ON UNIT   1019 AT TIME STEP      1, STRESS PERIOD    187

 HEAD WILL BE SAVED ON UNIT 1018 AT END OF TIME STEP    1, STRESS PERIOD  187


  VOLUME BUDGET FOR ENTIRE MODEL AT END OF TIME STEP    1, STRESS PERIOD 187
  ---------------------------------------------------------------------------------------------------

     CUMULATIVE VOLUME      L**3       RATES FOR THIS TIME STEP      L**3/T          PACKAGE NAME    
     ------------------                 ------------------------                     ----------------

           IN:                                      IN:
           ---                                      ---
              STO-SS =      160468.9694                STO-SS =         533.3862     STORAGE                          
                 WEL =      159966.5664                   WEL =        1457.0992     RIV_CORR                         
                 DRN =           0.0000                   DRN =           0.0000     DRN_SYS1                         
                 RIV =      153598.5382                   RIV =        1492.1049     RIV_SYS1                         
                 RIV =           0.0000                   RIV =           0.0000     RIV_SYS2                         
                 RCH =      261267.5495                   RCH =           7.6645     RCH_MSW                          

            TOTAL IN =      735301.6235              TOTAL IN =        3490.2547

          OUT:                                     OUT:
          ----                                     ----
              STO-SS =      101652.6592                STO-SS =           0.0000     STORAGE                          
                 WEL =      195154.5232                   WEL =         673.5030     RIV_CORR                         
                 DRN =       48215.7004                   DRN =         226.7204     DRN_SYS1                         
                 RIV =      184811.4103                   RIV =         670.5308     RIV_SYS1                         
                 RIV =      130058.6020                   RIV =         615.1743     RIV_SYS2                         
                 RCH =       75411.1553                   RCH =        1304.3453     RCH_MSW                          

           TOTAL OUT =      735304.0504             TOTAL OUT =        3490.2738

            IN - OUT =          -2.4269              IN - OUT =      -1.9049E-02

 PERCENT DISCREPANCY =          -0.00     PERCENT DISCREPANCY =          -0.00




         TIME SUMMARY AT END OF TIME STEP    1 IN STRESS PERIOD  187
                    SECONDS     MINUTES      HOURS       DAYS        YEARS
                    -----------------------------------------------------------
   TIME STEP LENGTH  86400.      1440.0      24.000      1.0000     2.73785E-03
 STRESS PERIOD TIME  86400.      1440.0      24.000      1.0000     2.73785E-03
         TOTAL TIME 1.61568E+07 2.69280E+05  4488.0      187.00     0.51198    


end timestep


start timestep kper="188" kstp="1" mode="normal"

 #Stressperiod Save Options

 BEGIN READING OUTPUT CONTROL FOR STRESS PERIOD 188
      ALL TIME STEPS WILL BE SAVED
      ALL TIME STEPS WILL BE SAVED

 END READING OUTPUT CONTROL FOR STRESS PERIOD 188


 PROCESSING STORAGE PERIOD DATA
 END PROCESSING STORAGE PERIOD DATA


 STRESS PERIOD 188 IS TRANSIENT


 REUSING WELS FROM LAST STRESS PERIOD

 REUSING DRNS FROM LAST STRESS PERIOD

 REUSING RIVS FROM LAST STRESS PERIOD

 REUSING RIVS FROM LAST STRESS PERIOD

 REUSING RCHS FROM LAST STRESS PERIOD
 UBDSV06 SAVING              DRN IN MODEL GWF_1            PACKAGE GWF_1           CONNECTED TO MODEL GWF_1            PACKAGE DRN_SYS1         ON UNIT   1019 AT TIME STEP      1, STRESS PERIOD    188
 UBDSV06 SAVING              RIV IN MODEL GWF_1            PACKAGE GWF_1           CONNECTED TO MODEL GWF_1            PACKAGE RIV_SYS1         ON UNIT   1019 AT TIME STEP      1, STRESS PERIOD    188
 UBDSV06 SAVING              RIV IN MODEL GWF_1            PACKAGE GWF_1           CONNECTED TO MODEL GWF_1            PACKAGE RIV_SYS2         ON UNIT   1019 AT TIME STEP      1, STRESS PERIOD    188

 HEAD WILL BE SAVED ON UNIT 1018 AT END OF TIME STEP    1, STRESS PERIOD  188


  VOLUME BUDGET FOR ENTIRE MODEL AT END OF TIME STEP    1, STRESS PERIOD 188
  ---------------------------------------------------------------------------------------------------

     CUMULATIVE VOLUME      L**3       RATES FOR THIS TIME STEP      L**3/T          PACKAGE NAME    
     ------------------                 ------------------------                     ----------------

           IN:                                      IN:
           ---                                      ---
              STO-SS =      160864.9391                STO-SS =         395.9697     STORAGE                          
                 WEL =      161458.6713                   WEL =        1492.1049     RIV_CORR                         
                 DRN =           0.0000                   DRN =           0.0000     DRN_SYS1                         
                 RIV =      154759.2486                   RIV =        1160.7104     RIV_SYS1                         
                 RIV =           0.0000                   RIV =           0.0000     RIV_SYS2                         
                 RCH =      261575.8112                   RCH =         308.2618     RCH_MSW                          

            TOTAL IN =      738658.6702              TOTAL IN =        3357.0467

          OUT:                                     OUT:
          ----                                     ----
              STO-SS =      101921.9267                STO-SS =         269.2675     STORAGE                          
                 WEL =      195825.0540                   WEL =         670.5308     RIV_CORR                         
                 DRN =       48441.7736                   DRN =         226.0732     DRN_SYS1                         
                 RIV =      185507.0400                   RIV =         695.6297     RIV_SYS1                         
                 RIV =      130672.3413                   RIV =         613.7393     RIV_SYS2                         
                 RCH =       76292.9666                   RCH =         881.8113     RCH_MSW                          

           TOTAL OUT =      738661.1022             TOTAL OUT =        3357.0518

            IN - OUT =          -2.4320              IN - OUT =      -5.1020E-03

 PERCENT DISCREPANCY =          -0.00     PERCENT DISCREPANCY =          -0.00




         TIME SUMMARY AT END OF TIME STEP    1 IN STRESS PERIOD  188
                    SECONDS     MINUTES      HOURS       DAYS        YEARS
                    -----------------------------------------------------------
   TIME STEP LENGTH  86400.      1440.0      24.000      1.0000     2.73785E-03
 STRESS PERIOD TIME  86400.      1440.0      24.000      1.0000     2.73785E-03
         TOTAL TIME 1.62432E+07 2.70720E+05  4512.0      188.00     0.51472    


end timestep


start timestep kper="189" kstp="1" mode="normal"

 #Stressperiod Save Options

 BEGIN READING OUTPUT CONTROL FOR STRESS PERIOD 189
      ALL TIME STEPS WILL BE SAVED
      ALL TIME STEPS WILL BE SAVED

 END READING OUTPUT CONTROL FOR STRESS PERIOD 189


 PROCESSING STORAGE PERIOD DATA
 END PROCESSING STORAGE PERIOD DATA


 STRESS PERIOD 189 IS TRANSIENT


 REUSING WELS FROM LAST STRESS PERIOD

 REUSING DRNS FROM LAST STRESS PERIOD

 REUSING RIVS FROM LAST STRESS PERIOD

 REUSING RIVS FROM LAST STRESS PERIOD

 REUSING RCHS FROM LAST STRESS PERIOD
 UBDSV06 SAVING              DRN IN MODEL GWF_1            PACKAGE GWF_1           CONNECTED TO MODEL GWF_1            PACKAGE DRN_SYS1         ON UNIT   1019 AT TIME STEP      1, STRESS PERIOD    189
 UBDSV06 SAVING              RIV IN MODEL GWF_1            PACKAGE GWF_1           CONNECTED TO MODEL GWF_1            PACKAGE RIV_SYS1         ON UNIT   1019 AT TIME STEP      1, STRESS PERIOD    189
 UBDSV06 SAVING              RIV IN MODEL GWF_1            PACKAGE GWF_1           CONNECTED TO MODEL GWF_1            PACKAGE RIV_SYS2         ON UNIT   1019 AT TIME STEP      1, STRESS PERIOD    189

 HEAD WILL BE SAVED ON UNIT 1018 AT END OF TIME STEP    1, STRESS PERIOD  189


  VOLUME BUDGET FOR ENTIRE MODEL AT END OF TIME STEP    1, STRESS PERIOD 189
  ---------------------------------------------------------------------------------------------------

     CUMULATIVE VOLUME      L**3       RATES FOR THIS TIME STEP      L**3/T          PACKAGE NAME    
     ------------------                 ------------------------                     ----------------

           IN:                                      IN:
           ---                                      ---
              STO-SS =      161455.4614                STO-SS =         590.5223     STORAGE                          
                 WEL =      162619.3816                   WEL =        1160.7104     RIV_CORR                         
                 DRN =           0.0000                   DRN =           0.0000     DRN_SYS1                         
                 RIV =      156271.0614                   RIV =        1511.8128     RIV_SYS1                         
                 RIV =           0.0000                   RIV =           0.0000     RIV_SYS2                         
                 RCH =      261585.6932                   RCH =           9.8819     RCH_MSW                          

            TOTAL IN =      741931.5976              TOTAL IN =        3272.9274

          OUT:                                     OUT:
          ----                                     ----
              STO-SS =      101921.9267                STO-SS =           0.0000     STORAGE                          
                 WEL =      196520.6837                   WEL =         695.6297     RIV_CORR                         
                 DRN =       48667.2275                   DRN =         225.4539     DRN_SYS1                         
                 RIV =      186173.1614                   RIV =         666.1213     RIV_SYS1                         
                 RIV =      131284.6750                   RIV =         612.3337     RIV_SYS2                         
                 RCH =       77366.4136                   RCH =        1073.4470     RCH_MSW                          

           TOTAL OUT =      741934.0878             TOTAL OUT =        3272.9856

            IN - OUT =          -2.4903              IN - OUT =      -5.8235E-02

 PERCENT DISCREPANCY =          -0.00     PERCENT DISCREPANCY =          -0.00




         TIME SUMMARY AT END OF TIME STEP    1 IN STRESS PERIOD  189
                    SECONDS     MINUTES      HOURS       DAYS        YEARS
                    -----------------------------------------------------------
   TIME STEP LENGTH  86400.      1440.0      24.000      1.0000     2.73785E-03
 STRESS PERIOD TIME  86400.      1440.0      24.000      1.0000     2.73785E-03
         TOTAL TIME 1.63296E+07 2.72160E+05  4536.0      189.00     0.51745    


end timestep


start timestep kper="190" kstp="1" mode="normal"

 #Stressperiod Save Options

 BEGIN READING OUTPUT CONTROL FOR STRESS PERIOD 190
      ALL TIME STEPS WILL BE SAVED
      ALL TIME STEPS WILL BE SAVED

 END READING OUTPUT CONTROL FOR STRESS PERIOD 190


 PROCESSING STORAGE PERIOD DATA
 END PROCESSING STORAGE PERIOD DATA


 STRESS PERIOD 190 IS TRANSIENT


 REUSING WELS FROM LAST STRESS PERIOD

 REUSING DRNS FROM LAST STRESS PERIOD

 REUSING RIVS FROM LAST STRESS PERIOD

 REUSING RIVS FROM LAST STRESS PERIOD

 REUSING RCHS FROM LAST STRESS PERIOD
 UBDSV06 SAVING              DRN IN MODEL GWF_1            PACKAGE GWF_1           CONNECTED TO MODEL GWF_1            PACKAGE DRN_SYS1         ON UNIT   1019 AT TIME STEP      1, STRESS PERIOD    190
 UBDSV06 SAVING              RIV IN MODEL GWF_1            PACKAGE GWF_1           CONNECTED TO MODEL GWF_1            PACKAGE RIV_SYS1         ON UNIT   1019 AT TIME STEP      1, STRESS PERIOD    190
 UBDSV06 SAVING              RIV IN MODEL GWF_1            PACKAGE GWF_1           CONNECTED TO MODEL GWF_1            PACKAGE RIV_SYS2         ON UNIT   1019 AT TIME STEP      1, STRESS PERIOD    190

 HEAD WILL BE SAVED ON UNIT 1018 AT END OF TIME STEP    1, STRESS PERIOD  190


  VOLUME BUDGET FOR ENTIRE MODEL AT END OF TIME STEP    1, STRESS PERIOD 190
  ---------------------------------------------------------------------------------------------------

     CUMULATIVE VOLUME      L**3       RATES FOR THIS TIME STEP      L**3/T          PACKAGE NAME    
     ------------------                 ------------------------                     ----------------

           IN:                                      IN:
           ---                                      ---
              STO-SS =      161873.0515                STO-SS =         417.5900     STORAGE                          
                 WEL =      164131.1944                   WEL =        1511.8128     RIV_CORR                         
                 DRN =           0.0000                   DRN =           0.0000     DRN_SYS1                         
                 RIV =      157702.9096                   RIV =        1431.8483     RIV_SYS1                         
                 RIV =           0.0000                   RIV =           0.0000     RIV_SYS2                         
                 RCH =      261594.8566                   RCH =           9.1634     RCH_MSW                          

            TOTAL IN =      745302.0121              TOTAL IN =        3370.4145

          OUT:                                     OUT:
          ----                                     ----
              STO-SS =      101942.5341                STO-SS =          20.6074     STORAGE                          
                 WEL =      197186.8050                   WEL =         666.1213     RIV_CORR                         
                 DRN =       48892.0854                   DRN =         224.8579     DRN_SYS1                         
                 RIV =      186836.9765                   RIV =         663.8151     RIV_SYS1                         
                 RIV =      131895.6418                   RIV =         610.9668     RIV_SYS2                         
                 RCH =       78550.4574                   RCH =        1184.0437     RCH_MSW                          

           TOTAL OUT =      745304.5002             TOTAL OUT =        3370.4124

            IN - OUT =          -2.4881              IN - OUT =       2.1721E-03

 PERCENT DISCREPANCY =          -0.00     PERCENT DISCREPANCY =           0.00




         TIME SUMMARY AT END OF TIME STEP    1 IN STRESS PERIOD  190
                    SECONDS     MINUTES      HOURS       DAYS        YEARS
                    -----------------------------------------------------------
   TIME STEP LENGTH  86400.      1440.0      24.000      1.0000     2.73785E-03
 STRESS PERIOD TIME  86400.      1440.0      24.000      1.0000     2.73785E-03
         TOTAL TIME 1.64160E+07 2.73600E+05  4560.0      190.00     0.52019    


end timestep


start timestep kper="191" kstp="1" mode="normal"

 #Stressperiod Save Options

 BEGIN READING OUTPUT CONTROL FOR STRESS PERIOD 191
      ALL TIME STEPS WILL BE SAVED
      ALL TIME STEPS WILL BE SAVED

 END READING OUTPUT CONTROL FOR STRESS PERIOD 191


 PROCESSING STORAGE PERIOD DATA
 END PROCESSING STORAGE PERIOD DATA


 STRESS PERIOD 191 IS TRANSIENT


 REUSING WELS FROM LAST STRESS PERIOD

 REUSING DRNS FROM LAST STRESS PERIOD

 REUSING RIVS FROM LAST STRESS PERIOD

 REUSING RIVS FROM LAST STRESS PERIOD

 REUSING RCHS FROM LAST STRESS PERIOD
 UBDSV06 SAVING              DRN IN MODEL GWF_1            PACKAGE GWF_1           CONNECTED TO MODEL GWF_1            PACKAGE DRN_SYS1         ON UNIT   1019 AT TIME STEP      1, STRESS PERIOD    191
 UBDSV06 SAVING              RIV IN MODEL GWF_1            PACKAGE GWF_1           CONNECTED TO MODEL GWF_1            PACKAGE RIV_SYS1         ON UNIT   1019 AT TIME STEP      1, STRESS PERIOD    191
 UBDSV06 SAVING              RIV IN MODEL GWF_1            PACKAGE GWF_1           CONNECTED TO MODEL GWF_1            PACKAGE RIV_SYS2         ON UNIT   1019 AT TIME STEP      1, STRESS PERIOD    191

 HEAD WILL BE SAVED ON UNIT 1018 AT END OF TIME STEP    1, STRESS PERIOD  191


  VOLUME BUDGET FOR ENTIRE MODEL AT END OF TIME STEP    1, STRESS PERIOD 191
  ---------------------------------------------------------------------------------------------------

     CUMULATIVE VOLUME      L**3       RATES FOR THIS TIME STEP      L**3/T          PACKAGE NAME    
     ------------------                 ------------------------                     ----------------

           IN:                                      IN:
           ---                                      ---
              STO-SS =      162357.6172                STO-SS =         484.5658     STORAGE                          
                 WEL =      165563.0427                   WEL =        1431.8483     RIV_CORR                         
                 DRN =           0.0000                   DRN =           0.0000     DRN_SYS1                         
                 RIV =      159225.9595                   RIV =        1523.0499     RIV_SYS1                         
                 RIV =           0.0000                   RIV =           0.0000     RIV_SYS2                         
                 RCH =      261604.4554                   RCH =           9.5988     RCH_MSW                          

            TOTAL IN =      748751.0748              TOTAL IN =        3449.0627

          OUT:                                     OUT:
          ----                                     ----
              STO-SS =      101942.5341                STO-SS =           0.0000     STORAGE                          
                 WEL =      197850.6201                   WEL =         663.8151     RIV_CORR                         
                 DRN =       49116.3489                   DRN =         224.2634     DRN_SYS1                         
                 RIV =      187498.2175                   RIV =         661.2411     RIV_SYS1                         
                 RIV =      132505.2288                   RIV =         609.5870     RIV_SYS2                         
                 RCH =       79840.6132                   RCH =        1290.1559     RCH_MSW                          

           TOTAL OUT =      748753.5626             TOTAL OUT =        3449.0624

            IN - OUT =          -2.4878              IN - OUT =       3.4249E-04

 PERCENT DISCREPANCY =          -0.00     PERCENT DISCREPANCY =           0.00




         TIME SUMMARY AT END OF TIME STEP    1 IN STRESS PERIOD  191
                    SECONDS     MINUTES      HOURS       DAYS        YEARS
                    -----------------------------------------------------------
   TIME STEP LENGTH  86400.      1440.0      24.000      1.0000     2.73785E-03
 STRESS PERIOD TIME  86400.      1440.0      24.000      1.0000     2.73785E-03
         TOTAL TIME 1.65024E+07 2.75040E+05  4584.0      191.00     0.52293    


end timestep


start timestep kper="192" kstp="1" mode="normal"

 #Stressperiod Save Options

 BEGIN READING OUTPUT CONTROL FOR STRESS PERIOD 192
      ALL TIME STEPS WILL BE SAVED
      ALL TIME STEPS WILL BE SAVED

 END READING OUTPUT CONTROL FOR STRESS PERIOD 192


 PROCESSING STORAGE PERIOD DATA
 END PROCESSING STORAGE PERIOD DATA


 STRESS PERIOD 192 IS TRANSIENT


 REUSING WELS FROM LAST STRESS PERIOD

 REUSING DRNS FROM LAST STRESS PERIOD

 REUSING RIVS FROM LAST STRESS PERIOD

 REUSING RIVS FROM LAST STRESS PERIOD

 REUSING RCHS FROM LAST STRESS PERIOD
 UBDSV06 SAVING              DRN IN MODEL GWF_1            PACKAGE GWF_1           CONNECTED TO MODEL GWF_1            PACKAGE DRN_SYS1         ON UNIT   1019 AT TIME STEP      1, STRESS PERIOD    192
 UBDSV06 SAVING              RIV IN MODEL GWF_1            PACKAGE GWF_1           CONNECTED TO MODEL GWF_1            PACKAGE RIV_SYS1         ON UNIT   1019 AT TIME STEP      1, STRESS PERIOD    192
 UBDSV06 SAVING              RIV IN MODEL GWF_1            PACKAGE GWF_1           CONNECTED TO MODEL GWF_1            PACKAGE RIV_SYS2         ON UNIT   1019 AT TIME STEP      1, STRESS PERIOD    192

 HEAD WILL BE SAVED ON UNIT 1018 AT END OF TIME STEP    1, STRESS PERIOD  192


  VOLUME BUDGET FOR ENTIRE MODEL AT END OF TIME STEP    1, STRESS PERIOD 192
  ---------------------------------------------------------------------------------------------------

     CUMULATIVE VOLUME      L**3       RATES FOR THIS TIME STEP      L**3/T          PACKAGE NAME    
     ------------------                 ------------------------                     ----------------

           IN:                                      IN:
           ---                                      ---
              STO-SS =      162808.8398                STO-SS =         451.2226     STORAGE                          
                 WEL =      167086.0925                   WEL =        1523.0499     RIV_CORR                         
                 DRN =           0.0000                   DRN =           0.0000     DRN_SYS1                         
                 RIV =      160754.6352                   RIV =        1528.6757     RIV_SYS1                         
                 RIV =           0.0000                   RIV =           0.0000     RIV_SYS2                         
                 RCH =      261607.3152                   RCH =           2.8598     RCH_MSW                          

            TOTAL IN =      752256.8828              TOTAL IN =        3505.8080

          OUT:                                     OUT:
          ----                                     ----
              STO-SS =      101943.5393                STO-SS =           1.0052     STORAGE                          
                 WEL =      198511.8612                   WEL =         661.2411     RIV_CORR                         
                 DRN =       49340.0203                   DRN =         223.6714     DRN_SYS1                         
                 RIV =      188157.0183                   RIV =         658.8007     RIV_SYS1                         
                 RIV =      133113.4151                   RIV =         608.1864     RIV_SYS2                         
                 RCH =       81193.5202                   RCH =        1352.9070     RCH_MSW                          

           TOTAL OUT =      752259.3743             TOTAL OUT =        3505.8118

            IN - OUT =          -2.4915              IN - OUT =      -3.7845E-03

 PERCENT DISCREPANCY =          -0.00     PERCENT DISCREPANCY =          -0.00




         TIME SUMMARY AT END OF TIME STEP    1 IN STRESS PERIOD  192
                    SECONDS     MINUTES      HOURS       DAYS        YEARS
                    -----------------------------------------------------------
   TIME STEP LENGTH  86400.      1440.0      24.000      1.0000     2.73785E-03
 STRESS PERIOD TIME  86400.      1440.0      24.000      1.0000     2.73785E-03
         TOTAL TIME 1.65888E+07 2.76480E+05  4608.0      192.00     0.52567    


end timestep


start timestep kper="193" kstp="1" mode="normal"

 #Stressperiod Save Options

 BEGIN READING OUTPUT CONTROL FOR STRESS PERIOD 193
      ALL TIME STEPS WILL BE SAVED
      ALL TIME STEPS WILL BE SAVED

 END READING OUTPUT CONTROL FOR STRESS PERIOD 193


 PROCESSING STORAGE PERIOD DATA
 END PROCESSING STORAGE PERIOD DATA


 STRESS PERIOD 193 IS TRANSIENT


 REUSING WELS FROM LAST STRESS PERIOD

 REUSING DRNS FROM LAST STRESS PERIOD

 REUSING RIVS FROM LAST STRESS PERIOD

 REUSING RIVS FROM LAST STRESS PERIOD

 REUSING RCHS FROM LAST STRESS PERIOD
 UBDSV06 SAVING              DRN IN MODEL GWF_1            PACKAGE GWF_1           CONNECTED TO MODEL GWF_1            PACKAGE DRN_SYS1         ON UNIT   1019 AT TIME STEP      1, STRESS PERIOD    193
 UBDSV06 SAVING              RIV IN MODEL GWF_1            PACKAGE GWF_1           CONNECTED TO MODEL GWF_1            PACKAGE RIV_SYS1         ON UNIT   1019 AT TIME STEP      1, STRESS PERIOD    193
 UBDSV06 SAVING              RIV IN MODEL GWF_1            PACKAGE GWF_1           CONNECTED TO MODEL GWF_1            PACKAGE RIV_SYS2         ON UNIT   1019 AT TIME STEP      1, STRESS PERIOD    193

 HEAD WILL BE SAVED ON UNIT 1018 AT END OF TIME STEP    1, STRESS PERIOD  193


  VOLUME BUDGET FOR ENTIRE MODEL AT END OF TIME STEP    1, STRESS PERIOD 193
  ---------------------------------------------------------------------------------------------------

     CUMULATIVE VOLUME      L**3       RATES FOR THIS TIME STEP      L**3/T          PACKAGE NAME    
     ------------------                 ------------------------                     ----------------

           IN:                                      IN:
           ---                                      ---
              STO-SS =      163261.4987                STO-SS =         452.6589     STORAGE                          
                 WEL =      168614.7683                   WEL =        1528.6757     RIV_CORR                         
                 DRN =           0.0000                   DRN =           0.0000     DRN_SYS1                         
                 RIV =      162313.8890                   RIV =        1559.2537     RIV_SYS1                         
                 RIV =           0.0000                   RIV =           0.0000     RIV_SYS2                         
                 RCH =      261609.6843                   RCH =           2.3691     RCH_MSW                          

            TOTAL IN =      755799.8403              TOTAL IN =        3542.9575

          OUT:                                     OUT:
          ----                                     ----
              STO-SS =      101943.5393                STO-SS =           0.0000     STORAGE                          
                 WEL =      199170.6619                   WEL =         658.8007     RIV_CORR                         
                 DRN =       49563.1026                   DRN =         223.0824     DRN_SYS1                         
                 RIV =      188813.4019                   RIV =         656.3836     RIV_SYS1                         
                 RIV =      133720.1908                   RIV =         606.7756     RIV_SYS2                         
                 RCH =       82591.4453                   RCH =        1397.9251     RCH_MSW                          

           TOTAL OUT =      755802.3418             TOTAL OUT =        3542.9675

            IN - OUT =          -2.5015              IN - OUT =      -9.9906E-03

 PERCENT DISCREPANCY =          -0.00     PERCENT DISCREPANCY =          -0.00




         TIME SUMMARY AT END OF TIME STEP    1 IN STRESS PERIOD  193
                    SECONDS     MINUTES      HOURS       DAYS        YEARS
                    -----------------------------------------------------------
   TIME STEP LENGTH  86400.      1440.0      24.000      1.0000     2.73785E-03
 STRESS PERIOD TIME  86400.      1440.0      24.000      1.0000     2.73785E-03
         TOTAL TIME 1.66752E+07 2.77920E+05  4632.0      193.00     0.52841    


end timestep


start timestep kper="194" kstp="1" mode="normal"

 #Stressperiod Save Options

 BEGIN READING OUTPUT CONTROL FOR STRESS PERIOD 194
      ALL TIME STEPS WILL BE SAVED
      ALL TIME STEPS WILL BE SAVED

 END READING OUTPUT CONTROL FOR STRESS PERIOD 194


 PROCESSING STORAGE PERIOD DATA
 END PROCESSING STORAGE PERIOD DATA


 STRESS PERIOD 194 IS TRANSIENT


 REUSING WELS FROM LAST STRESS PERIOD

 REUSING DRNS FROM LAST STRESS PERIOD

 REUSING RIVS FROM LAST STRESS PERIOD

 REUSING RIVS FROM LAST STRESS PERIOD

 REUSING RCHS FROM LAST STRESS PERIOD
 UBDSV06 SAVING              DRN IN MODEL GWF_1            PACKAGE GWF_1           CONNECTED TO MODEL GWF_1            PACKAGE DRN_SYS1         ON UNIT   1019 AT TIME STEP      1, STRESS PERIOD    194
 UBDSV06 SAVING              RIV IN MODEL GWF_1            PACKAGE GWF_1           CONNECTED TO MODEL GWF_1            PACKAGE RIV_SYS1         ON UNIT   1019 AT TIME STEP      1, STRESS PERIOD    194
 UBDSV06 SAVING              RIV IN MODEL GWF_1            PACKAGE GWF_1           CONNECTED TO MODEL GWF_1            PACKAGE RIV_SYS2         ON UNIT   1019 AT TIME STEP      1, STRESS PERIOD    194

 HEAD WILL BE SAVED ON UNIT 1018 AT END OF TIME STEP    1, STRESS PERIOD  194


  VOLUME BUDGET FOR ENTIRE MODEL AT END OF TIME STEP    1, STRESS PERIOD 194
  ---------------------------------------------------------------------------------------------------

     CUMULATIVE VOLUME      L**3       RATES FOR THIS TIME STEP      L**3/T          PACKAGE NAME    
     ------------------                 ------------------------                     ----------------

           IN:                                      IN:
           ---                                      ---
              STO-SS =      163675.4353                STO-SS =         413.9366     STORAGE                          
                 WEL =      170174.0220                   WEL =        1559.2537     RIV_CORR                         
                 DRN =           0.0000                   DRN =           0.0000     DRN_SYS1                         
                 RIV =      163865.3432                   RIV =        1551.4542     RIV_SYS1                         
                 RIV =           0.0000                   RIV =           0.0000     RIV_SYS2                         
                 RCH =      261611.6484                   RCH =           1.9641     RCH_MSW                          

            TOTAL IN =      759326.4490              TOTAL IN =        3526.6087

          OUT:                                     OUT:
          ----                                     ----
              STO-SS =      101946.6401                STO-SS =           3.1008     STORAGE                          
                 WEL =      199827.0455                   WEL =         656.3836     RIV_CORR                         
                 DRN =       49785.6098                   DRN =         222.5072     DRN_SYS1                         
                 RIV =      189467.5415                   RIV =         654.1397     RIV_SYS1                         
                 RIV =      134325.5889                   RIV =         605.3981     RIV_SYS2                         
                 RCH =       83976.5436                   RCH =        1385.0984     RCH_MSW                          

           TOTAL OUT =      759328.9696             TOTAL OUT =        3526.6278

            IN - OUT =          -2.5206              IN - OUT =      -1.9107E-02

 PERCENT DISCREPANCY =          -0.00     PERCENT DISCREPANCY =          -0.00




         TIME SUMMARY AT END OF TIME STEP    1 IN STRESS PERIOD  194
                    SECONDS     MINUTES      HOURS       DAYS        YEARS
                    -----------------------------------------------------------
   TIME STEP LENGTH  86400.      1440.0      24.000      1.0000     2.73785E-03
 STRESS PERIOD TIME  86400.      1440.0      24.000      1.0000     2.73785E-03
         TOTAL TIME 1.67616E+07 2.79360E+05  4656.0      194.00     0.53114    


end timestep


start timestep kper="195" kstp="1" mode="normal"

 #Stressperiod Save Options

 BEGIN READING OUTPUT CONTROL FOR STRESS PERIOD 195
      ALL TIME STEPS WILL BE SAVED
      ALL TIME STEPS WILL BE SAVED

 END READING OUTPUT CONTROL FOR STRESS PERIOD 195


 PROCESSING STORAGE PERIOD DATA
 END PROCESSING STORAGE PERIOD DATA


 STRESS PERIOD 195 IS TRANSIENT


 REUSING WELS FROM LAST STRESS PERIOD

 REUSING DRNS FROM LAST STRESS PERIOD

 REUSING RIVS FROM LAST STRESS PERIOD

 REUSING RIVS FROM LAST STRESS PERIOD

 REUSING RCHS FROM LAST STRESS PERIOD
 UBDSV06 SAVING              DRN IN MODEL GWF_1            PACKAGE GWF_1           CONNECTED TO MODEL GWF_1            PACKAGE DRN_SYS1         ON UNIT   1019 AT TIME STEP      1, STRESS PERIOD    195
 UBDSV06 SAVING              RIV IN MODEL GWF_1            PACKAGE GWF_1           CONNECTED TO MODEL GWF_1            PACKAGE RIV_SYS1         ON UNIT   1019 AT TIME STEP      1, STRESS PERIOD    195
 UBDSV06 SAVING              RIV IN MODEL GWF_1            PACKAGE GWF_1           CONNECTED TO MODEL GWF_1            PACKAGE RIV_SYS2         ON UNIT   1019 AT TIME STEP      1, STRESS PERIOD    195

 HEAD WILL BE SAVED ON UNIT 1018 AT END OF TIME STEP    1, STRESS PERIOD  195


  VOLUME BUDGET FOR ENTIRE MODEL AT END OF TIME STEP    1, STRESS PERIOD 195
  ---------------------------------------------------------------------------------------------------

     CUMULATIVE VOLUME      L**3       RATES FOR THIS TIME STEP      L**3/T          PACKAGE NAME    
     ------------------                 ------------------------                     ----------------

           IN:                                      IN:
           ---                                      ---
              STO-SS =      163981.9055                STO-SS =         306.4702     STORAGE                          
                 WEL =      171725.4763                   WEL =        1551.4542     RIV_CORR                         
                 DRN =           0.0000                   DRN =           0.0000     DRN_SYS1                         
                 RIV =      165136.7635                   RIV =        1271.4203     RIV_SYS1                         
                 RIV =           0.0000                   RIV =           0.0000     RIV_SYS2                         
                 RCH =      261795.9386                   RCH =         184.2902     RCH_MSW                          

            TOTAL IN =      762640.0838              TOTAL IN =        3313.6349

          OUT:                                     OUT:
          ----                                     ----
              STO-SS =      102159.4249                STO-SS =         212.7848     STORAGE                          
                 WEL =      200481.1852                   WEL =         654.1397     RIV_CORR                         
                 DRN =       50007.6341                   DRN =         222.0242     DRN_SYS1                         
                 RIV =      190134.5228                   RIV =         666.9812     RIV_SYS1                         
                 RIV =      134929.8986                   RIV =         604.3096     RIV_SYS2                         
                 RCH =       84929.9404                   RCH =         953.3968     RCH_MSW                          

           TOTAL OUT =      762642.6059             TOTAL OUT =        3313.6364

            IN - OUT =          -2.5221              IN - OUT =      -1.4738E-03

 PERCENT DISCREPANCY =          -0.00     PERCENT DISCREPANCY =          -0.00




         TIME SUMMARY AT END OF TIME STEP    1 IN STRESS PERIOD  195
                    SECONDS     MINUTES      HOURS       DAYS        YEARS
                    -----------------------------------------------------------
   TIME STEP LENGTH  86400.      1440.0      24.000      1.0000     2.73785E-03
 STRESS PERIOD TIME  86400.      1440.0      24.000      1.0000     2.73785E-03
         TOTAL TIME 1.68480E+07 2.80800E+05  4680.0      195.00     0.53388    


end timestep


start timestep kper="196" kstp="1" mode="normal"

 #Stressperiod Save Options

 BEGIN READING OUTPUT CONTROL FOR STRESS PERIOD 196
      ALL TIME STEPS WILL BE SAVED
      ALL TIME STEPS WILL BE SAVED

 END READING OUTPUT CONTROL FOR STRESS PERIOD 196


 PROCESSING STORAGE PERIOD DATA
 END PROCESSING STORAGE PERIOD DATA


 STRESS PERIOD 196 IS TRANSIENT


 REUSING WELS FROM LAST STRESS PERIOD

 REUSING DRNS FROM LAST STRESS PERIOD

 REUSING RIVS FROM LAST STRESS PERIOD

 REUSING RIVS FROM LAST STRESS PERIOD

 REUSING RCHS FROM LAST STRESS PERIOD
 UBDSV06 SAVING              DRN IN MODEL GWF_1            PACKAGE GWF_1           CONNECTED TO MODEL GWF_1            PACKAGE DRN_SYS1         ON UNIT   1019 AT TIME STEP      1, STRESS PERIOD    196
 UBDSV06 SAVING              RIV IN MODEL GWF_1            PACKAGE GWF_1           CONNECTED TO MODEL GWF_1            PACKAGE RIV_SYS1         ON UNIT   1019 AT TIME STEP      1, STRESS PERIOD    196
 UBDSV06 SAVING              RIV IN MODEL GWF_1            PACKAGE GWF_1           CONNECTED TO MODEL GWF_1            PACKAGE RIV_SYS2         ON UNIT   1019 AT TIME STEP      1, STRESS PERIOD    196

 HEAD WILL BE SAVED ON UNIT 1018 AT END OF TIME STEP    1, STRESS PERIOD  196


  VOLUME BUDGET FOR ENTIRE MODEL AT END OF TIME STEP    1, STRESS PERIOD 196
  ---------------------------------------------------------------------------------------------------

     CUMULATIVE VOLUME      L**3       RATES FOR THIS TIME STEP      L**3/T          PACKAGE NAME    
     ------------------                 ------------------------                     ----------------

           IN:                                      IN:
           ---                                      ---
              STO-SS =      164499.1440                STO-SS =         517.2385     STORAGE                          
                 WEL =      172996.8965                   WEL =        1271.4203     RIV_CORR                         
                 DRN =           0.0000                   DRN =           0.0000     DRN_SYS1                         
                 RIV =      166744.4548                   RIV =        1607.6913     RIV_SYS1                         
                 RIV =           0.0000                   RIV =           0.0000     RIV_SYS2                         
                 RCH =      261800.1449                   RCH =           4.2063     RCH_MSW                          

            TOTAL IN =      766040.6402              TOTAL IN =        3400.5564

          OUT:                                     OUT:
          ----                                     ----
              STO-SS =      102159.4249                STO-SS =           0.0000     STORAGE                          
                 WEL =      201148.1664                   WEL =         666.9812     RIV_CORR                         
                 DRN =       50229.1780                   DRN =         221.5439     DRN_SYS1                         
                 RIV =      190785.1728                   RIV =         650.6500     RIV_SYS1                         
                 RIV =      135533.0915                   RIV =         603.1929     RIV_SYS2                         
                 RCH =       86188.1885                   RCH =        1258.2481     RCH_MSW                          

           TOTAL OUT =      766043.2221             TOTAL OUT =        3400.6162

            IN - OUT =          -2.5819              IN - OUT =      -5.9799E-02

 PERCENT DISCREPANCY =          -0.00     PERCENT DISCREPANCY =          -0.00




         TIME SUMMARY AT END OF TIME STEP    1 IN STRESS PERIOD  196
                    SECONDS     MINUTES      HOURS       DAYS        YEARS
                    -----------------------------------------------------------
   TIME STEP LENGTH  86400.      1440.0      24.000      1.0000     2.73785E-03
 STRESS PERIOD TIME  86400.      1440.0      24.000      1.0000     2.73785E-03
         TOTAL TIME 1.69344E+07 2.82240E+05  4704.0      196.00     0.53662    


end timestep


start timestep kper="197" kstp="1" mode="normal"

 #Stressperiod Save Options

 BEGIN READING OUTPUT CONTROL FOR STRESS PERIOD 197
      ALL TIME STEPS WILL BE SAVED
      ALL TIME STEPS WILL BE SAVED

 END READING OUTPUT CONTROL FOR STRESS PERIOD 197


 PROCESSING STORAGE PERIOD DATA
 END PROCESSING STORAGE PERIOD DATA


 STRESS PERIOD 197 IS TRANSIENT


 REUSING WELS FROM LAST STRESS PERIOD

 REUSING DRNS FROM LAST STRESS PERIOD

 REUSING RIVS FROM LAST STRESS PERIOD

 REUSING RIVS FROM LAST STRESS PERIOD

 REUSING RCHS FROM LAST STRESS PERIOD
 UBDSV06 SAVING              DRN IN MODEL GWF_1            PACKAGE GWF_1           CONNECTED TO MODEL GWF_1            PACKAGE DRN_SYS1         ON UNIT   1019 AT TIME STEP      1, STRESS PERIOD    197
 UBDSV06 SAVING              RIV IN MODEL GWF_1            PACKAGE GWF_1           CONNECTED TO MODEL GWF_1            PACKAGE RIV_SYS1         ON UNIT   1019 AT TIME STEP      1, STRESS PERIOD    197
 UBDSV06 SAVING              RIV IN MODEL GWF_1            PACKAGE GWF_1           CONNECTED TO MODEL GWF_1            PACKAGE RIV_SYS2         ON UNIT   1019 AT TIME STEP      1, STRESS PERIOD    197

 HEAD WILL BE SAVED ON UNIT 1018 AT END OF TIME STEP    1, STRESS PERIOD  197


  VOLUME BUDGET FOR ENTIRE MODEL AT END OF TIME STEP    1, STRESS PERIOD 197
  ---------------------------------------------------------------------------------------------------

     CUMULATIVE VOLUME      L**3       RATES FOR THIS TIME STEP      L**3/T          PACKAGE NAME    
     ------------------                 ------------------------                     ----------------

           IN:                                      IN:
           ---                                      ---
              STO-SS =      164809.1354                STO-SS =         309.9915     STORAGE                          
                 WEL =      174604.5878                   WEL =        1607.6913     RIV_CORR                         
                 DRN =           0.0000                   DRN =           0.0000     DRN_SYS1                         
                 RIV =      168220.3607                   RIV =        1475.9059     RIV_SYS1                         
                 RIV =           0.0000                   RIV =           0.0000     RIV_SYS2                         
                 RCH =      261803.6393                   RCH =           3.4943     RCH_MSW                          

            TOTAL IN =      769437.7232              TOTAL IN =        3397.0830

          OUT:                                     OUT:
          ----                                     ----
              STO-SS =      102200.2685                STO-SS =          40.8436     STORAGE                          
                 WEL =      201798.8165                   WEL =         650.6500     RIV_CORR                         
                 DRN =       50450.2640                   DRN =         221.0861     DRN_SYS1                         
                 RIV =      191434.2506                   RIV =         649.0778     RIV_SYS1                         
                 RIV =      136135.2194                   RIV =         602.1279     RIV_SYS2                         
                 RCH =       87421.4837                   RCH =        1233.2952     RCH_MSW                          

           TOTAL OUT =      769440.3027             TOTAL OUT =        3397.0806

            IN - OUT =          -2.5795              IN - OUT =       2.3985E-03

 PERCENT DISCREPANCY =          -0.00     PERCENT DISCREPANCY =           0.00




         TIME SUMMARY AT END OF TIME STEP    1 IN STRESS PERIOD  197
                    SECONDS     MINUTES      HOURS       DAYS        YEARS
                    -----------------------------------------------------------
   TIME STEP LENGTH  86400.      1440.0      24.000      1.0000     2.73785E-03
 STRESS PERIOD TIME  86400.      1440.0      24.000      1.0000     2.73785E-03
         TOTAL TIME 1.70208E+07 2.83680E+05  4728.0      197.00     0.53936    


end timestep


start timestep kper="198" kstp="1" mode="normal"

 #Stressperiod Save Options

 BEGIN READING OUTPUT CONTROL FOR STRESS PERIOD 198
      ALL TIME STEPS WILL BE SAVED
      ALL TIME STEPS WILL BE SAVED

 END READING OUTPUT CONTROL FOR STRESS PERIOD 198


 PROCESSING STORAGE PERIOD DATA
 END PROCESSING STORAGE PERIOD DATA


 STRESS PERIOD 198 IS TRANSIENT


 REUSING WELS FROM LAST STRESS PERIOD

 REUSING DRNS FROM LAST STRESS PERIOD

 REUSING RIVS FROM LAST STRESS PERIOD

 REUSING RIVS FROM LAST STRESS PERIOD

 REUSING RCHS FROM LAST STRESS PERIOD
 UBDSV06 SAVING              DRN IN MODEL GWF_1            PACKAGE GWF_1           CONNECTED TO MODEL GWF_1            PACKAGE DRN_SYS1         ON UNIT   1019 AT TIME STEP      1, STRESS PERIOD    198
 UBDSV06 SAVING              RIV IN MODEL GWF_1            PACKAGE GWF_1           CONNECTED TO MODEL GWF_1            PACKAGE RIV_SYS1         ON UNIT   1019 AT TIME STEP      1, STRESS PERIOD    198
 UBDSV06 SAVING              RIV IN MODEL GWF_1            PACKAGE GWF_1           CONNECTED TO MODEL GWF_1            PACKAGE RIV_SYS2         ON UNIT   1019 AT TIME STEP      1, STRESS PERIOD    198

 HEAD WILL BE SAVED ON UNIT 1018 AT END OF TIME STEP    1, STRESS PERIOD  198


  VOLUME BUDGET FOR ENTIRE MODEL AT END OF TIME STEP    1, STRESS PERIOD 198
  ---------------------------------------------------------------------------------------------------

     CUMULATIVE VOLUME      L**3       RATES FOR THIS TIME STEP      L**3/T          PACKAGE NAME    
     ------------------                 ------------------------                     ----------------

           IN:                                      IN:
           ---                                      ---
              STO-SS =      165191.3753                STO-SS =         382.2399     STORAGE                          
                 WEL =      176080.4937                   WEL =        1475.9059     RIV_CORR                         
                 DRN =           0.0000                   DRN =           0.0000     DRN_SYS1                         
                 RIV =      169792.0867                   RIV =        1571.7260     RIV_SYS1                         
                 RIV =           0.0000                   RIV =           0.0000     RIV_SYS2                         
                 RCH =      261807.4556                   RCH =           3.8163     RCH_MSW                          

            TOTAL IN =      772871.4113              TOTAL IN =        3433.6881

          OUT:                                     OUT:
          ----                                     ----
              STO-SS =      102200.2685                STO-SS =           0.0000     STORAGE                          
                 WEL =      202447.8942                   WEL =         649.0778     RIV_CORR                         
                 DRN =       50670.8979                   DRN =         220.6339     DRN_SYS1                         
                 RIV =      192081.3399                   RIV =         647.0894     RIV_SYS1                         
                 RIV =      136736.2790                   RIV =         601.0596     RIV_SYS2                         
                 RCH =       88737.3058                   RCH =        1315.8221     RCH_MSW                          

           TOTAL OUT =      772873.9854             TOTAL OUT =        3433.6827

            IN - OUT =          -2.5741              IN - OUT =       5.4013E-03

 PERCENT DISCREPANCY =          -0.00     PERCENT DISCREPANCY =           0.00




         TIME SUMMARY AT END OF TIME STEP    1 IN STRESS PERIOD  198
                    SECONDS     MINUTES      HOURS       DAYS        YEARS
                    -----------------------------------------------------------
   TIME STEP LENGTH  86400.      1440.0      24.000      1.0000     2.73785E-03
 STRESS PERIOD TIME  86400.      1440.0      24.000      1.0000     2.73785E-03
         TOTAL TIME 1.71072E+07 2.85120E+05  4752.0      198.00     0.54209    


end timestep


start timestep kper="199" kstp="1" mode="normal"

 #Stressperiod Save Options

 BEGIN READING OUTPUT CONTROL FOR STRESS PERIOD 199
      ALL TIME STEPS WILL BE SAVED
      ALL TIME STEPS WILL BE SAVED

 END READING OUTPUT CONTROL FOR STRESS PERIOD 199


 PROCESSING STORAGE PERIOD DATA
 END PROCESSING STORAGE PERIOD DATA


 STRESS PERIOD 199 IS TRANSIENT


 REUSING WELS FROM LAST STRESS PERIOD

 REUSING DRNS FROM LAST STRESS PERIOD

 REUSING RIVS FROM LAST STRESS PERIOD

 REUSING RIVS FROM LAST STRESS PERIOD

 REUSING RCHS FROM LAST STRESS PERIOD
 UBDSV06 SAVING              DRN IN MODEL GWF_1            PACKAGE GWF_1           CONNECTED TO MODEL GWF_1            PACKAGE DRN_SYS1         ON UNIT   1019 AT TIME STEP      1, STRESS PERIOD    199
 UBDSV06 SAVING              RIV IN MODEL GWF_1            PACKAGE GWF_1           CONNECTED TO MODEL GWF_1            PACKAGE RIV_SYS1         ON UNIT   1019 AT TIME STEP      1, STRESS PERIOD    199
 UBDSV06 SAVING              RIV IN MODEL GWF_1            PACKAGE GWF_1           CONNECTED TO MODEL GWF_1            PACKAGE RIV_SYS2         ON UNIT   1019 AT TIME STEP      1, STRESS PERIOD    199

 HEAD WILL BE SAVED ON UNIT 1018 AT END OF TIME STEP    1, STRESS PERIOD  199


  VOLUME BUDGET FOR ENTIRE MODEL AT END OF TIME STEP    1, STRESS PERIOD 199
  ---------------------------------------------------------------------------------------------------

     CUMULATIVE VOLUME      L**3       RATES FOR THIS TIME STEP      L**3/T          PACKAGE NAME    
     ------------------                 ------------------------                     ----------------

           IN:                                      IN:
           ---                                      ---
              STO-SS =      165533.0219                STO-SS =         341.6466     STORAGE                          
                 WEL =      177652.2197                   WEL =        1571.7260     RIV_CORR                         
                 DRN =           0.0000                   DRN =           0.0000     DRN_SYS1                         
                 RIV =      171364.4154                   RIV =        1572.3287     RIV_SYS1                         
                 RIV =           0.0000                   RIV =           0.0000     RIV_SYS2                         
                 RCH =      261811.8721                   RCH =           4.4165     RCH_MSW                          

            TOTAL IN =      776361.5290              TOTAL IN =        3490.1177

          OUT:                                     OUT:
          ----                                     ----
              STO-SS =      102201.3591                STO-SS =           1.0905     STORAGE                          
                 WEL =      203094.9836                   WEL =         647.0894     RIV_CORR                         
                 DRN =       50891.0842                   DRN =         220.1862     DRN_SYS1                         
                 RIV =      192726.5930                   RIV =         645.2531     RIV_SYS1                         
                 RIV =      137336.2742                   RIV =         599.9952     RIV_SYS2                         
                 RCH =       90113.8287                   RCH =        1376.5228     RCH_MSW                          

           TOTAL OUT =      776364.1227             TOTAL OUT =        3490.1373

            IN - OUT =          -2.5937              IN - OUT =      -1.9557E-02

 PERCENT DISCREPANCY =          -0.00     PERCENT DISCREPANCY =          -0.00




         TIME SUMMARY AT END OF TIME STEP    1 IN STRESS PERIOD  199
                    SECONDS     MINUTES      HOURS       DAYS        YEARS
                    -----------------------------------------------------------
   TIME STEP LENGTH  86400.      1440.0      24.000      1.0000     2.73785E-03
 STRESS PERIOD TIME  86400.      1440.0      24.000      1.0000     2.73785E-03
         TOTAL TIME 1.71936E+07 2.86560E+05  4776.0      199.00     0.54483    


end timestep


start timestep kper="200" kstp="1" mode="normal"

 #Stressperiod Save Options

 BEGIN READING OUTPUT CONTROL FOR STRESS PERIOD 200
      ALL TIME STEPS WILL BE SAVED
      ALL TIME STEPS WILL BE SAVED

 END READING OUTPUT CONTROL FOR STRESS PERIOD 200


 PROCESSING STORAGE PERIOD DATA
 END PROCESSING STORAGE PERIOD DATA


 STRESS PERIOD 200 IS TRANSIENT


 REUSING WELS FROM LAST STRESS PERIOD

 REUSING DRNS FROM LAST STRESS PERIOD

 REUSING RIVS FROM LAST STRESS PERIOD

 REUSING RIVS FROM LAST STRESS PERIOD

 REUSING RCHS FROM LAST STRESS PERIOD
 UBDSV06 SAVING              DRN IN MODEL GWF_1            PACKAGE GWF_1           CONNECTED TO MODEL GWF_1            PACKAGE DRN_SYS1         ON UNIT   1019 AT TIME STEP      1, STRESS PERIOD    200
 UBDSV06 SAVING              RIV IN MODEL GWF_1            PACKAGE GWF_1           CONNECTED TO MODEL GWF_1            PACKAGE RIV_SYS1         ON UNIT   1019 AT TIME STEP      1, STRESS PERIOD    200
 UBDSV06 SAVING              RIV IN MODEL GWF_1            PACKAGE GWF_1           CONNECTED TO MODEL GWF_1            PACKAGE RIV_SYS2         ON UNIT   1019 AT TIME STEP      1, STRESS PERIOD    200

 HEAD WILL BE SAVED ON UNIT 1018 AT END OF TIME STEP    1, STRESS PERIOD  200


  VOLUME BUDGET FOR ENTIRE MODEL AT END OF TIME STEP    1, STRESS PERIOD 200
  ---------------------------------------------------------------------------------------------------

     CUMULATIVE VOLUME      L**3       RATES FOR THIS TIME STEP      L**3/T          PACKAGE NAME    
     ------------------                 ------------------------                     ----------------

           IN:                                      IN:
           ---                                      ---
              STO-SS =      165856.5711                STO-SS =         323.5493     STORAGE                          
                 WEL =      179224.5484                   WEL =        1572.3287     RIV_CORR                         
                 DRN =           0.0000                   DRN =           0.0000     DRN_SYS1                         
                 RIV =      172936.7564                   RIV =        1572.3410     RIV_SYS1                         
                 RIV =           0.0000                   RIV =           0.0000     RIV_SYS2                         
                 RCH =      261811.9861                   RCH =           0.1140     RCH_MSW                          

            TOTAL IN =      779829.8620              TOTAL IN =        3468.3330

          OUT:                                     OUT:
          ----                                     ----
              STO-SS =      102202.6263                STO-SS =           1.2673     STORAGE                          
                 WEL =      203740.2367                   WEL =         645.2531     RIV_CORR                         
                 DRN =       51110.8331                   DRN =         219.7490     DRN_SYS1                         
                 RIV =      193370.1397                   RIV =         643.5467     RIV_SYS1                         
                 RIV =      137935.2290                   RIV =         598.9548     RIV_SYS2                         
                 RCH =       91473.3953                   RCH =        1359.5666     RCH_MSW                          

           TOTAL OUT =      779832.4602             TOTAL OUT =        3468.3375

            IN - OUT =          -2.5981              IN - OUT =      -4.4642E-03

 PERCENT DISCREPANCY =          -0.00     PERCENT DISCREPANCY =          -0.00




         TIME SUMMARY AT END OF TIME STEP    1 IN STRESS PERIOD  200
                    SECONDS     MINUTES      HOURS       DAYS        YEARS
                    -----------------------------------------------------------
   TIME STEP LENGTH  86400.      1440.0      24.000      1.0000     2.73785E-03
 STRESS PERIOD TIME  86400.      1440.0      24.000      1.0000     2.73785E-03
         TOTAL TIME 1.72800E+07 2.88000E+05  4800.0      200.00     0.54757    


end timestep


start timestep kper="201" kstp="1" mode="normal"

 #Stressperiod Save Options

 BEGIN READING OUTPUT CONTROL FOR STRESS PERIOD 201
      ALL TIME STEPS WILL BE SAVED
      ALL TIME STEPS WILL BE SAVED

 END READING OUTPUT CONTROL FOR STRESS PERIOD 201


 PROCESSING STORAGE PERIOD DATA
 END PROCESSING STORAGE PERIOD DATA


 STRESS PERIOD 201 IS TRANSIENT


 REUSING WELS FROM LAST STRESS PERIOD

 REUSING DRNS FROM LAST STRESS PERIOD

 REUSING RIVS FROM LAST STRESS PERIOD

 REUSING RIVS FROM LAST STRESS PERIOD

 REUSING RCHS FROM LAST STRESS PERIOD
 UBDSV06 SAVING              DRN IN MODEL GWF_1            PACKAGE GWF_1           CONNECTED TO MODEL GWF_1            PACKAGE DRN_SYS1         ON UNIT   1019 AT TIME STEP      1, STRESS PERIOD    201
 UBDSV06 SAVING              RIV IN MODEL GWF_1            PACKAGE GWF_1           CONNECTED TO MODEL GWF_1            PACKAGE RIV_SYS1         ON UNIT   1019 AT TIME STEP      1, STRESS PERIOD    201
 UBDSV06 SAVING              RIV IN MODEL GWF_1            PACKAGE GWF_1           CONNECTED TO MODEL GWF_1            PACKAGE RIV_SYS2         ON UNIT   1019 AT TIME STEP      1, STRESS PERIOD    201

 HEAD WILL BE SAVED ON UNIT 1018 AT END OF TIME STEP    1, STRESS PERIOD  201


  VOLUME BUDGET FOR ENTIRE MODEL AT END OF TIME STEP    1, STRESS PERIOD 201
  ---------------------------------------------------------------------------------------------------

     CUMULATIVE VOLUME      L**3       RATES FOR THIS TIME STEP      L**3/T          PACKAGE NAME    
     ------------------                 ------------------------                     ----------------

           IN:                                      IN:
           ---                                      ---
              STO-SS =      166180.1103                STO-SS =         323.5391     STORAGE                          
                 WEL =      180796.8895                   WEL =        1572.3410     RIV_CORR                         
                 DRN =           0.0000                   DRN =           0.0000     DRN_SYS1                         
                 RIV =      174527.8188                   RIV =        1591.0624     RIV_SYS1                         
                 RIV =           0.0000                   RIV =           0.0000     RIV_SYS2                         
                 RCH =      261811.9980                   RCH =       1.1958E-02     RCH_MSW                          

            TOTAL IN =      783316.8165              TOTAL IN =        3486.9545

          OUT:                                     OUT:
          ----                                     ----
              STO-SS =      102202.6263                STO-SS =           0.0000     STORAGE                          
                 WEL =      204383.7834                   WEL =         643.5467     RIV_CORR                         
                 DRN =       51330.1556                   DRN =         219.3224     DRN_SYS1                         
                 RIV =      194011.9906                   RIV =         641.8509     RIV_SYS1                         
                 RIV =      138533.1650                   RIV =         597.9359     RIV_SYS2                         
                 RCH =       92857.6945                   RCH =        1384.2991     RCH_MSW                          

           TOTAL OUT =      783319.4153             TOTAL OUT =        3486.9551

            IN - OUT =          -2.5987              IN - OUT =      -5.9133E-04

 PERCENT DISCREPANCY =          -0.00     PERCENT DISCREPANCY =          -0.00




         TIME SUMMARY AT END OF TIME STEP    1 IN STRESS PERIOD  201
                    SECONDS     MINUTES      HOURS       DAYS        YEARS
                    -----------------------------------------------------------
   TIME STEP LENGTH  86400.      1440.0      24.000      1.0000     2.73785E-03
 STRESS PERIOD TIME  86400.      1440.0      24.000      1.0000     2.73785E-03
         TOTAL TIME 1.73664E+07 2.89440E+05  4824.0      201.00     0.55031    


end timestep


start timestep kper="202" kstp="1" mode="normal"

 #Stressperiod Save Options

 BEGIN READING OUTPUT CONTROL FOR STRESS PERIOD 202
      ALL TIME STEPS WILL BE SAVED
      ALL TIME STEPS WILL BE SAVED

 END READING OUTPUT CONTROL FOR STRESS PERIOD 202


 PROCESSING STORAGE PERIOD DATA
 END PROCESSING STORAGE PERIOD DATA


 STRESS PERIOD 202 IS TRANSIENT


 REUSING WELS FROM LAST STRESS PERIOD

 REUSING DRNS FROM LAST STRESS PERIOD

 REUSING RIVS FROM LAST STRESS PERIOD

 REUSING RIVS FROM LAST STRESS PERIOD

 REUSING RCHS FROM LAST STRESS PERIOD
 UBDSV06 SAVING              DRN IN MODEL GWF_1            PACKAGE GWF_1           CONNECTED TO MODEL GWF_1            PACKAGE DRN_SYS1         ON UNIT   1019 AT TIME STEP      1, STRESS PERIOD    202
 UBDSV06 SAVING              RIV IN MODEL GWF_1            PACKAGE GWF_1           CONNECTED TO MODEL GWF_1            PACKAGE RIV_SYS1         ON UNIT   1019 AT TIME STEP      1, STRESS PERIOD    202
 UBDSV06 SAVING              RIV IN MODEL GWF_1            PACKAGE GWF_1           CONNECTED TO MODEL GWF_1            PACKAGE RIV_SYS2         ON UNIT   1019 AT TIME STEP      1, STRESS PERIOD    202

 HEAD WILL BE SAVED ON UNIT 1018 AT END OF TIME STEP    1, STRESS PERIOD  202


  VOLUME BUDGET FOR ENTIRE MODEL AT END OF TIME STEP    1, STRESS PERIOD 202
  ---------------------------------------------------------------------------------------------------

     CUMULATIVE VOLUME      L**3       RATES FOR THIS TIME STEP      L**3/T          PACKAGE NAME    
     ------------------                 ------------------------                     ----------------

           IN:                                      IN:
           ---                                      ---
              STO-SS =      166492.6062                STO-SS =         312.4959     STORAGE                          
                 WEL =      182387.9519                   WEL =        1591.0624     RIV_CORR                         
                 DRN =           0.0000                   DRN =           0.0000     DRN_SYS1                         
                 RIV =      176131.1415                   RIV =        1603.3227     RIV_SYS1                         
                 RIV =           0.0000                   RIV =           0.0000     RIV_SYS2                         
                 RCH =      261811.9980                   RCH =           0.0000     RCH_MSW                          

            TOTAL IN =      786823.6975              TOTAL IN =        3506.8810

          OUT:                                     OUT:
          ----                                     ----
              STO-SS =      102202.6263                STO-SS =           0.0000     STORAGE                          
                 WEL =      205025.6342                   WEL =         641.8509     RIV_CORR                         
                 DRN =       51549.0631                   DRN =         218.9075     DRN_SYS1                         
                 RIV =      194652.2080                   RIV =         640.2175     RIV_SYS1                         
                 RIV =      139130.1055                   RIV =         596.9405     RIV_SYS2                         
                 RCH =       94266.6601                   RCH =        1408.9656     RCH_MSW                          

           TOTAL OUT =      786826.2972             TOTAL OUT =        3506.8820

            IN - OUT =          -2.5997              IN - OUT =      -1.0075E-03

 PERCENT DISCREPANCY =          -0.00     PERCENT DISCREPANCY =          -0.00




         TIME SUMMARY AT END OF TIME STEP    1 IN STRESS PERIOD  202
                    SECONDS     MINUTES      HOURS       DAYS        YEARS
                    -----------------------------------------------------------
   TIME STEP LENGTH  86400.      1440.0      24.000      1.0000     2.73785E-03
 STRESS PERIOD TIME  86400.      1440.0      24.000      1.0000     2.73785E-03
         TOTAL TIME 1.74528E+07 2.90880E+05  4848.0      202.00     0.55305    


end timestep


start timestep kper="203" kstp="1" mode="normal"

 #Stressperiod Save Options

 BEGIN READING OUTPUT CONTROL FOR STRESS PERIOD 203
      ALL TIME STEPS WILL BE SAVED
      ALL TIME STEPS WILL BE SAVED

 END READING OUTPUT CONTROL FOR STRESS PERIOD 203


 PROCESSING STORAGE PERIOD DATA
 END PROCESSING STORAGE PERIOD DATA


 STRESS PERIOD 203 IS TRANSIENT


 REUSING WELS FROM LAST STRESS PERIOD

 REUSING DRNS FROM LAST STRESS PERIOD

 REUSING RIVS FROM LAST STRESS PERIOD

 REUSING RIVS FROM LAST STRESS PERIOD

 REUSING RCHS FROM LAST STRESS PERIOD
 UBDSV06 SAVING              DRN IN MODEL GWF_1            PACKAGE GWF_1           CONNECTED TO MODEL GWF_1            PACKAGE DRN_SYS1         ON UNIT   1019 AT TIME STEP      1, STRESS PERIOD    203
 UBDSV06 SAVING              RIV IN MODEL GWF_1            PACKAGE GWF_1           CONNECTED TO MODEL GWF_1            PACKAGE RIV_SYS1         ON UNIT   1019 AT TIME STEP      1, STRESS PERIOD    203
 UBDSV06 SAVING              RIV IN MODEL GWF_1            PACKAGE GWF_1           CONNECTED TO MODEL GWF_1            PACKAGE RIV_SYS2         ON UNIT   1019 AT TIME STEP      1, STRESS PERIOD    203

 HEAD WILL BE SAVED ON UNIT 1018 AT END OF TIME STEP    1, STRESS PERIOD  203


  VOLUME BUDGET FOR ENTIRE MODEL AT END OF TIME STEP    1, STRESS PERIOD 203
  ---------------------------------------------------------------------------------------------------

     CUMULATIVE VOLUME      L**3       RATES FOR THIS TIME STEP      L**3/T          PACKAGE NAME    
     ------------------                 ------------------------                     ----------------

           IN:                                      IN:
           ---                                      ---
              STO-SS =      166775.9621                STO-SS =         283.3560     STORAGE                          
                 WEL =      183991.2745                   WEL =        1603.3227     RIV_CORR                         
                 DRN =           0.0000                   DRN =           0.0000     DRN_SYS1                         
                 RIV =      177723.1928                   RIV =        1592.0513     RIV_SYS1                         
                 RIV =           0.0000                   RIV =           0.0000     RIV_SYS2                         
                 RCH =      261811.9980                   RCH =           0.0000     RCH_MSW                          

            TOTAL IN =      790302.4274              TOTAL IN =        3478.7299

          OUT:                                     OUT:
          ----                                     ----
              STO-SS =      102206.2576                STO-SS =           3.6313     STORAGE                          
                 WEL =      205665.8517                   WEL =         640.2175     RIV_CORR                         
                 DRN =       51767.5728                   DRN =         218.5097     DRN_SYS1                         
                 RIV =      195290.9412                   RIV =         638.7332     RIV_SYS1                         
                 RIV =      139726.0935                   RIV =         595.9880     RIV_SYS2                         
                 RCH =       95648.3164                   RCH =        1381.6563     RCH_MSW                          

           TOTAL OUT =      790305.0332             TOTAL OUT =        3478.7359

            IN - OUT =          -2.6057              IN - OUT =      -5.9925E-03

 PERCENT DISCREPANCY =          -0.00     PERCENT DISCREPANCY =          -0.00




         TIME SUMMARY AT END OF TIME STEP    1 IN STRESS PERIOD  203
                    SECONDS     MINUTES      HOURS       DAYS        YEARS
                    -----------------------------------------------------------
   TIME STEP LENGTH  86400.      1440.0      24.000      1.0000     2.73785E-03
 STRESS PERIOD TIME  86400.      1440.0      24.000      1.0000     2.73785E-03
         TOTAL TIME 1.75392E+07 2.92320E+05  4872.0      203.00     0.55578    


end timestep


start timestep kper="204" kstp="1" mode="normal"

 #Stressperiod Save Options

 BEGIN READING OUTPUT CONTROL FOR STRESS PERIOD 204
      ALL TIME STEPS WILL BE SAVED
      ALL TIME STEPS WILL BE SAVED

 END READING OUTPUT CONTROL FOR STRESS PERIOD 204


 PROCESSING STORAGE PERIOD DATA
 END PROCESSING STORAGE PERIOD DATA


 STRESS PERIOD 204 IS TRANSIENT


 REUSING WELS FROM LAST STRESS PERIOD

 REUSING DRNS FROM LAST STRESS PERIOD

 REUSING RIVS FROM LAST STRESS PERIOD

 REUSING RIVS FROM LAST STRESS PERIOD

 REUSING RCHS FROM LAST STRESS PERIOD
 UBDSV06 SAVING              DRN IN MODEL GWF_1            PACKAGE GWF_1           CONNECTED TO MODEL GWF_1            PACKAGE DRN_SYS1         ON UNIT   1019 AT TIME STEP      1, STRESS PERIOD    204
 UBDSV06 SAVING              RIV IN MODEL GWF_1            PACKAGE GWF_1           CONNECTED TO MODEL GWF_1            PACKAGE RIV_SYS1         ON UNIT   1019 AT TIME STEP      1, STRESS PERIOD    204
 UBDSV06 SAVING              RIV IN MODEL GWF_1            PACKAGE GWF_1           CONNECTED TO MODEL GWF_1            PACKAGE RIV_SYS2         ON UNIT   1019 AT TIME STEP      1, STRESS PERIOD    204

 HEAD WILL BE SAVED ON UNIT 1018 AT END OF TIME STEP    1, STRESS PERIOD  204


  VOLUME BUDGET FOR ENTIRE MODEL AT END OF TIME STEP    1, STRESS PERIOD 204
  ---------------------------------------------------------------------------------------------------

     CUMULATIVE VOLUME      L**3       RATES FOR THIS TIME STEP      L**3/T          PACKAGE NAME    
     ------------------                 ------------------------                     ----------------

           IN:                                      IN:
           ---                                      ---
              STO-SS =      167061.9404                STO-SS =         285.9783     STORAGE                          
                 WEL =      185583.3258                   WEL =        1592.0513     RIV_CORR                         
                 DRN =           0.0000                   DRN =           0.0000     DRN_SYS1                         
                 RIV =      179334.3359                   RIV =        1611.1431     RIV_SYS1                         
                 RIV =           0.0000                   RIV =           0.0000     RIV_SYS2                         
                 RCH =      261811.9980                   RCH =           0.0000     RCH_MSW                          

            TOTAL IN =      793791.6001              TOTAL IN =        3489.1727

          OUT:                                     OUT:
          ----                                     ----
              STO-SS =      102206.2576                STO-SS =           0.0000     STORAGE                          
                 WEL =      206304.5849                   WEL =         638.7332     RIV_CORR                         
                 DRN =       51985.6996                   DRN =         218.1268     DRN_SYS1                         
                 RIV =      195928.1891                   RIV =         637.2479     RIV_SYS1                         
                 RIV =      140321.1648                   RIV =         595.0713     RIV_SYS2                         
                 RCH =       97048.3105                   RCH =        1399.9941     RCH_MSW                          

           TOTAL OUT =      793794.2065             TOTAL OUT =        3489.1734

            IN - OUT =          -2.6064              IN - OUT =      -6.7337E-04

 PERCENT DISCREPANCY =          -0.00     PERCENT DISCREPANCY =          -0.00




         TIME SUMMARY AT END OF TIME STEP    1 IN STRESS PERIOD  204
                    SECONDS     MINUTES      HOURS       DAYS        YEARS
                    -----------------------------------------------------------
   TIME STEP LENGTH  86400.      1440.0      24.000      1.0000     2.73785E-03
 STRESS PERIOD TIME  86400.      1440.0      24.000      1.0000     2.73785E-03
         TOTAL TIME 1.76256E+07 2.93760E+05  4896.0      204.00     0.55852    


end timestep


start timestep kper="205" kstp="1" mode="normal"

 #Stressperiod Save Options

 BEGIN READING OUTPUT CONTROL FOR STRESS PERIOD 205
      ALL TIME STEPS WILL BE SAVED
      ALL TIME STEPS WILL BE SAVED

 END READING OUTPUT CONTROL FOR STRESS PERIOD 205


 PROCESSING STORAGE PERIOD DATA
 END PROCESSING STORAGE PERIOD DATA


 STRESS PERIOD 205 IS TRANSIENT


 REUSING WELS FROM LAST STRESS PERIOD

 REUSING DRNS FROM LAST STRESS PERIOD

 REUSING RIVS FROM LAST STRESS PERIOD

 REUSING RIVS FROM LAST STRESS PERIOD

 REUSING RCHS FROM LAST STRESS PERIOD
 UBDSV06 SAVING              DRN IN MODEL GWF_1            PACKAGE GWF_1           CONNECTED TO MODEL GWF_1            PACKAGE DRN_SYS1         ON UNIT   1019 AT TIME STEP      1, STRESS PERIOD    205
 UBDSV06 SAVING              RIV IN MODEL GWF_1            PACKAGE GWF_1           CONNECTED TO MODEL GWF_1            PACKAGE RIV_SYS1         ON UNIT   1019 AT TIME STEP      1, STRESS PERIOD    205
 UBDSV06 SAVING              RIV IN MODEL GWF_1            PACKAGE GWF_1           CONNECTED TO MODEL GWF_1            PACKAGE RIV_SYS2         ON UNIT   1019 AT TIME STEP      1, STRESS PERIOD    205

 HEAD WILL BE SAVED ON UNIT 1018 AT END OF TIME STEP    1, STRESS PERIOD  205


  VOLUME BUDGET FOR ENTIRE MODEL AT END OF TIME STEP    1, STRESS PERIOD 205
  ---------------------------------------------------------------------------------------------------

     CUMULATIVE VOLUME      L**3       RATES FOR THIS TIME STEP      L**3/T          PACKAGE NAME    
     ------------------                 ------------------------                     ----------------

           IN:                                      IN:
           ---                                      ---
              STO-SS =      167341.7562                STO-SS =         279.8158     STORAGE                          
                 WEL =      187194.4689                   WEL =        1611.1431     RIV_CORR                         
                 DRN =           0.0000                   DRN =           0.0000     DRN_SYS1                         
                 RIV =      180959.9717                   RIV =        1625.6358     RIV_SYS1                         
                 RIV =           0.0000                   RIV =           0.0000     RIV_SYS2                         
                 RCH =      261811.9980                   RCH =           0.0000     RCH_MSW                          

            TOTAL IN =      797308.1949              TOTAL IN =        3516.5947

          OUT:                                     OUT:
          ----                                     ----
              STO-SS =      102206.2576                STO-SS =           0.0000     STORAGE                          
                 WEL =      206941.8328                   WEL =         637.2479     RIV_CORR                         
                 DRN =       52203.4556                   DRN =         217.7560     DRN_SYS1                         
                 RIV =      196563.9842                   RIV =         635.7951     RIV_SYS1                         
                 RIV =      140915.3464                   RIV =         594.1816     RIV_SYS2                         
                 RCH =       98479.9331                   RCH =        1431.6227     RCH_MSW                          

           TOTAL OUT =      797310.8097             TOTAL OUT =        3516.6032

            IN - OUT =          -2.6148              IN - OUT =      -8.4163E-03

 PERCENT DISCREPANCY =          -0.00     PERCENT DISCREPANCY =          -0.00




         TIME SUMMARY AT END OF TIME STEP    1 IN STRESS PERIOD  205
                    SECONDS     MINUTES      HOURS       DAYS        YEARS
                    -----------------------------------------------------------
   TIME STEP LENGTH  86400.      1440.0      24.000      1.0000     2.73785E-03
 STRESS PERIOD TIME  86400.      1440.0      24.000      1.0000     2.73785E-03
         TOTAL TIME 1.77120E+07 2.95200E+05  4920.0      205.00     0.56126    


end timestep


start timestep kper="206" kstp="1" mode="normal"

 #Stressperiod Save Options

 BEGIN READING OUTPUT CONTROL FOR STRESS PERIOD 206
      ALL TIME STEPS WILL BE SAVED
      ALL TIME STEPS WILL BE SAVED

 END READING OUTPUT CONTROL FOR STRESS PERIOD 206


 PROCESSING STORAGE PERIOD DATA
 END PROCESSING STORAGE PERIOD DATA


 STRESS PERIOD 206 IS TRANSIENT


 REUSING WELS FROM LAST STRESS PERIOD

 REUSING DRNS FROM LAST STRESS PERIOD

 REUSING RIVS FROM LAST STRESS PERIOD

 REUSING RIVS FROM LAST STRESS PERIOD

 REUSING RCHS FROM LAST STRESS PERIOD
 UBDSV06 SAVING              DRN IN MODEL GWF_1            PACKAGE GWF_1           CONNECTED TO MODEL GWF_1            PACKAGE DRN_SYS1         ON UNIT   1019 AT TIME STEP      1, STRESS PERIOD    206
 UBDSV06 SAVING              RIV IN MODEL GWF_1            PACKAGE GWF_1           CONNECTED TO MODEL GWF_1            PACKAGE RIV_SYS1         ON UNIT   1019 AT TIME STEP      1, STRESS PERIOD    206
 UBDSV06 SAVING              RIV IN MODEL GWF_1            PACKAGE GWF_1           CONNECTED TO MODEL GWF_1            PACKAGE RIV_SYS2         ON UNIT   1019 AT TIME STEP      1, STRESS PERIOD    206

 HEAD WILL BE SAVED ON UNIT 1018 AT END OF TIME STEP    1, STRESS PERIOD  206


  VOLUME BUDGET FOR ENTIRE MODEL AT END OF TIME STEP    1, STRESS PERIOD 206
  ---------------------------------------------------------------------------------------------------

     CUMULATIVE VOLUME      L**3       RATES FOR THIS TIME STEP      L**3/T          PACKAGE NAME    
     ------------------                 ------------------------                     ----------------

           IN:                                      IN:
           ---                                      ---
              STO-SS =      167576.3382                STO-SS =         234.5820     STORAGE                          
                 WEL =      188820.1048                   WEL =        1625.6358     RIV_CORR                         
                 DRN =           0.0000                   DRN =           0.0000     DRN_SYS1                         
                 RIV =      182532.0686                   RIV =        1572.0969     RIV_SYS1                         
                 RIV =           0.0000                   RIV =           0.0000     RIV_SYS2                         
                 RCH =      261811.9980                   RCH =           0.0000     RCH_MSW                          

            TOTAL IN =      800740.5096              TOTAL IN =        3432.3147

          OUT:                                     OUT:
          ----                                     ----
              STO-SS =      102232.6296                STO-SS =          26.3721     STORAGE                          
                 WEL =      207577.6278                   WEL =         635.7951     RIV_CORR                         
                 DRN =       52420.8665                   DRN =         217.4109     DRN_SYS1                         
                 RIV =      197198.6322                   RIV =         634.6480     RIV_SYS1                         
                 RIV =      141508.7088                   RIV =         593.3624     RIV_SYS2                         
                 RCH =       99804.7345                   RCH =        1324.8014     RCH_MSW                          

           TOTAL OUT =      800743.1995             TOTAL OUT =        3432.3898

            IN - OUT =          -2.6899              IN - OUT =      -7.5095E-02

 PERCENT DISCREPANCY =          -0.00     PERCENT DISCREPANCY =          -0.00




         TIME SUMMARY AT END OF TIME STEP    1 IN STRESS PERIOD  206
                    SECONDS     MINUTES      HOURS       DAYS        YEARS
                    -----------------------------------------------------------
   TIME STEP LENGTH  86400.      1440.0      24.000      1.0000     2.73785E-03
 STRESS PERIOD TIME  86400.      1440.0      24.000      1.0000     2.73785E-03
         TOTAL TIME 1.77984E+07 2.96640E+05  4944.0      206.00     0.56400    


end timestep


start timestep kper="207" kstp="1" mode="normal"

 #Stressperiod Save Options

 BEGIN READING OUTPUT CONTROL FOR STRESS PERIOD 207
      ALL TIME STEPS WILL BE SAVED
      ALL TIME STEPS WILL BE SAVED

 END READING OUTPUT CONTROL FOR STRESS PERIOD 207


 PROCESSING STORAGE PERIOD DATA
 END PROCESSING STORAGE PERIOD DATA


 STRESS PERIOD 207 IS TRANSIENT


 REUSING WELS FROM LAST STRESS PERIOD

 REUSING DRNS FROM LAST STRESS PERIOD

 REUSING RIVS FROM LAST STRESS PERIOD

 REUSING RIVS FROM LAST STRESS PERIOD

 REUSING RCHS FROM LAST STRESS PERIOD
 UBDSV06 SAVING              DRN IN MODEL GWF_1            PACKAGE GWF_1           CONNECTED TO MODEL GWF_1            PACKAGE DRN_SYS1         ON UNIT   1019 AT TIME STEP      1, STRESS PERIOD    207
 UBDSV06 SAVING              RIV IN MODEL GWF_1            PACKAGE GWF_1           CONNECTED TO MODEL GWF_1            PACKAGE RIV_SYS1         ON UNIT   1019 AT TIME STEP      1, STRESS PERIOD    207
 UBDSV06 SAVING              RIV IN MODEL GWF_1            PACKAGE GWF_1           CONNECTED TO MODEL GWF_1            PACKAGE RIV_SYS2         ON UNIT   1019 AT TIME STEP      1, STRESS PERIOD    207

 HEAD WILL BE SAVED ON UNIT 1018 AT END OF TIME STEP    1, STRESS PERIOD  207


  VOLUME BUDGET FOR ENTIRE MODEL AT END OF TIME STEP    1, STRESS PERIOD 207
  ---------------------------------------------------------------------------------------------------

     CUMULATIVE VOLUME      L**3       RATES FOR THIS TIME STEP      L**3/T          PACKAGE NAME    
     ------------------                 ------------------------                     ----------------

           IN:                                      IN:
           ---                                      ---
              STO-SS =      167840.3428                STO-SS =         264.0046     STORAGE                          
                 WEL =      190392.2017                   WEL =        1572.0969     RIV_CORR                         
                 DRN =           0.0000                   DRN =           0.0000     DRN_SYS1                         
                 RIV =      184158.5022                   RIV =        1626.4336     RIV_SYS1                         
                 RIV =           0.0000                   RIV =           0.0000     RIV_SYS2                         
                 RCH =      261811.9980                   RCH =           0.0000     RCH_MSW                          

            TOTAL IN =      804203.0448              TOTAL IN =        3462.5352

          OUT:                                     OUT:
          ----                                     ----
              STO-SS =      102232.6296                STO-SS =           0.0000     STORAGE                          
                 WEL =      208212.2758                   WEL =         634.6480     RIV_CORR                         
                 DRN =       52637.9467                   DRN =         217.0801     DRN_SYS1                         
                 RIV =      197831.9412                   RIV =         633.3091     RIV_SYS1                         
                 RIV =      142101.2827                   RIV =         592.5739     RIV_SYS2                         
                 RCH =      101189.7169                   RCH =        1384.9824     RCH_MSW                          

           TOTAL OUT =      804205.7930             TOTAL OUT =        3462.5935

            IN - OUT =          -2.7482              IN - OUT =      -5.8320E-02

 PERCENT DISCREPANCY =          -0.00     PERCENT DISCREPANCY =          -0.00




         TIME SUMMARY AT END OF TIME STEP    1 IN STRESS PERIOD  207
                    SECONDS     MINUTES      HOURS       DAYS        YEARS
                    -----------------------------------------------------------
   TIME STEP LENGTH  86400.      1440.0      24.000      1.0000     2.73785E-03
 STRESS PERIOD TIME  86400.      1440.0      24.000      1.0000     2.73785E-03
         TOTAL TIME 1.78848E+07 2.98080E+05  4968.0      207.00     0.56674    


end timestep


start timestep kper="208" kstp="1" mode="normal"

 #Stressperiod Save Options

 BEGIN READING OUTPUT CONTROL FOR STRESS PERIOD 208
      ALL TIME STEPS WILL BE SAVED
      ALL TIME STEPS WILL BE SAVED

 END READING OUTPUT CONTROL FOR STRESS PERIOD 208


 PROCESSING STORAGE PERIOD DATA
 END PROCESSING STORAGE PERIOD DATA


 STRESS PERIOD 208 IS TRANSIENT


 REUSING WELS FROM LAST STRESS PERIOD

 REUSING DRNS FROM LAST STRESS PERIOD

 REUSING RIVS FROM LAST STRESS PERIOD

 REUSING RIVS FROM LAST STRESS PERIOD

 REUSING RCHS FROM LAST STRESS PERIOD
 UBDSV06 SAVING              DRN IN MODEL GWF_1            PACKAGE GWF_1           CONNECTED TO MODEL GWF_1            PACKAGE DRN_SYS1         ON UNIT   1019 AT TIME STEP      1, STRESS PERIOD    208
 UBDSV06 SAVING              RIV IN MODEL GWF_1            PACKAGE GWF_1           CONNECTED TO MODEL GWF_1            PACKAGE RIV_SYS1         ON UNIT   1019 AT TIME STEP      1, STRESS PERIOD    208
 UBDSV06 SAVING              RIV IN MODEL GWF_1            PACKAGE GWF_1           CONNECTED TO MODEL GWF_1            PACKAGE RIV_SYS2         ON UNIT   1019 AT TIME STEP      1, STRESS PERIOD    208

 HEAD WILL BE SAVED ON UNIT 1018 AT END OF TIME STEP    1, STRESS PERIOD  208


  VOLUME BUDGET FOR ENTIRE MODEL AT END OF TIME STEP    1, STRESS PERIOD 208
  ---------------------------------------------------------------------------------------------------

     CUMULATIVE VOLUME      L**3       RATES FOR THIS TIME STEP      L**3/T          PACKAGE NAME    
     ------------------                 ------------------------                     ----------------

           IN:                                      IN:
           ---                                      ---
              STO-SS =      168068.0293                STO-SS =         227.6865     STORAGE                          
                 WEL =      192018.6353                   WEL =        1626.4336     RIV_CORR                         
                 DRN =           0.0000                   DRN =           0.0000     DRN_SYS1                         
                 RIV =      185771.8376                   RIV =        1613.3353     RIV_SYS1                         
                 RIV =           0.0000                   RIV =           0.0000     RIV_SYS2                         
                 RCH =      261811.9980                   RCH =           0.0000     RCH_MSW                          

            TOTAL IN =      807670.5002              TOTAL IN =        3467.4554

          OUT:                                     OUT:
          ----                                     ----
              STO-SS =      102236.3519                STO-SS =           3.7222     STORAGE                          
                 WEL =      208845.5849                   WEL =         633.3091     RIV_CORR                         
                 DRN =       52854.7113                   DRN =         216.7646     DRN_SYS1                         
                 RIV =      198464.0575                   RIV =         632.1162     RIV_SYS1                         
                 RIV =      142693.1029                   RIV =         591.8202     RIV_SYS2                         
                 RCH =      102579.4429                   RCH =        1389.7259     RCH_MSW                          

           TOTAL OUT =      807673.2512             TOTAL OUT =        3467.4583

            IN - OUT =          -2.7511              IN - OUT =      -2.8580E-03

 PERCENT DISCREPANCY =          -0.00     PERCENT DISCREPANCY =          -0.00




         TIME SUMMARY AT END OF TIME STEP    1 IN STRESS PERIOD  208
                    SECONDS     MINUTES      HOURS       DAYS        YEARS
                    -----------------------------------------------------------
   TIME STEP LENGTH  86400.      1440.0      24.000      1.0000     2.73785E-03
 STRESS PERIOD TIME  86400.      1440.0      24.000      1.0000     2.73785E-03
         TOTAL TIME 1.79712E+07 2.99520E+05  4992.0      208.00     0.56947    


end timestep


start timestep kper="209" kstp="1" mode="normal"

 #Stressperiod Save Options

 BEGIN READING OUTPUT CONTROL FOR STRESS PERIOD 209
      ALL TIME STEPS WILL BE SAVED
      ALL TIME STEPS WILL BE SAVED

 END READING OUTPUT CONTROL FOR STRESS PERIOD 209


 PROCESSING STORAGE PERIOD DATA
 END PROCESSING STORAGE PERIOD DATA


 STRESS PERIOD 209 IS TRANSIENT


 REUSING WELS FROM LAST STRESS PERIOD

 REUSING DRNS FROM LAST STRESS PERIOD

 REUSING RIVS FROM LAST STRESS PERIOD

 REUSING RIVS FROM LAST STRESS PERIOD

 REUSING RCHS FROM LAST STRESS PERIOD
 UBDSV06 SAVING              DRN IN MODEL GWF_1            PACKAGE GWF_1           CONNECTED TO MODEL GWF_1            PACKAGE DRN_SYS1         ON UNIT   1019 AT TIME STEP      1, STRESS PERIOD    209
 UBDSV06 SAVING              RIV IN MODEL GWF_1            PACKAGE GWF_1           CONNECTED TO MODEL GWF_1            PACKAGE RIV_SYS1         ON UNIT   1019 AT TIME STEP      1, STRESS PERIOD    209
 UBDSV06 SAVING              RIV IN MODEL GWF_1            PACKAGE GWF_1           CONNECTED TO MODEL GWF_1            PACKAGE RIV_SYS2         ON UNIT   1019 AT TIME STEP      1, STRESS PERIOD    209

 HEAD WILL BE SAVED ON UNIT 1018 AT END OF TIME STEP    1, STRESS PERIOD  209


  VOLUME BUDGET FOR ENTIRE MODEL AT END OF TIME STEP    1, STRESS PERIOD 209
  ---------------------------------------------------------------------------------------------------

     CUMULATIVE VOLUME      L**3       RATES FOR THIS TIME STEP      L**3/T          PACKAGE NAME    
     ------------------                 ------------------------                     ----------------

           IN:                                      IN:
           ---                                      ---
              STO-SS =      168269.3249                STO-SS =         201.2956     STORAGE                          
                 WEL =      193631.9706                   WEL =        1613.3353     RIV_CORR                         
                 DRN =           0.0000                   DRN =           0.0000     DRN_SYS1                         
                 RIV =      187346.6588                   RIV =        1574.8212     RIV_SYS1                         
                 RIV =           0.0000                   RIV =           0.0000     RIV_SYS2                         
                 RCH =      261811.9980                   RCH =           0.0000     RCH_MSW                          

            TOTAL IN =      811059.9523              TOTAL IN =        3389.4521

          OUT:                                     OUT:
          ----                                     ----
              STO-SS =      102259.9008                STO-SS =          23.5489     STORAGE                          
                 WEL =      209477.7011                   WEL =         632.1162     RIV_CORR                         
                 DRN =       53071.1843                   DRN =         216.4730     DRN_SYS1                         
                 RIV =      199095.1983                   RIV =         631.1409     RIV_SYS1                         
                 RIV =      143284.2341                   RIV =         591.1312     RIV_SYS2                         
                 RCH =      103874.5385                   RCH =        1295.0957     RCH_MSW                          

           TOTAL OUT =      811062.7571             TOTAL OUT =        3389.5059

            IN - OUT =          -2.8049              IN - OUT =      -5.3773E-02

 PERCENT DISCREPANCY =          -0.00     PERCENT DISCREPANCY =          -0.00




         TIME SUMMARY AT END OF TIME STEP    1 IN STRESS PERIOD  209
                    SECONDS     MINUTES      HOURS       DAYS        YEARS
                    -----------------------------------------------------------
   TIME STEP LENGTH  86400.      1440.0      24.000      1.0000     2.73785E-03
 STRESS PERIOD TIME  86400.      1440.0      24.000      1.0000     2.73785E-03
         TOTAL TIME 1.80576E+07 3.00960E+05  5016.0      209.00     0.57221    


end timestep


start timestep kper="210" kstp="1" mode="normal"

 #Stressperiod Save Options

 BEGIN READING OUTPUT CONTROL FOR STRESS PERIOD 210
      ALL TIME STEPS WILL BE SAVED
      ALL TIME STEPS WILL BE SAVED

 END READING OUTPUT CONTROL FOR STRESS PERIOD 210


 PROCESSING STORAGE PERIOD DATA
 END PROCESSING STORAGE PERIOD DATA


 STRESS PERIOD 210 IS TRANSIENT


 REUSING WELS FROM LAST STRESS PERIOD

 REUSING DRNS FROM LAST STRESS PERIOD

 REUSING RIVS FROM LAST STRESS PERIOD

 REUSING RIVS FROM LAST STRESS PERIOD

 REUSING RCHS FROM LAST STRESS PERIOD
 UBDSV06 SAVING              DRN IN MODEL GWF_1            PACKAGE GWF_1           CONNECTED TO MODEL GWF_1            PACKAGE DRN_SYS1         ON UNIT   1019 AT TIME STEP      1, STRESS PERIOD    210
 UBDSV06 SAVING              RIV IN MODEL GWF_1            PACKAGE GWF_1           CONNECTED TO MODEL GWF_1            PACKAGE RIV_SYS1         ON UNIT   1019 AT TIME STEP      1, STRESS PERIOD    210
 UBDSV06 SAVING              RIV IN MODEL GWF_1            PACKAGE GWF_1           CONNECTED TO MODEL GWF_1            PACKAGE RIV_SYS2         ON UNIT   1019 AT TIME STEP      1, STRESS PERIOD    210

 HEAD WILL BE SAVED ON UNIT 1018 AT END OF TIME STEP    1, STRESS PERIOD  210


  VOLUME BUDGET FOR ENTIRE MODEL AT END OF TIME STEP    1, STRESS PERIOD 210
  ---------------------------------------------------------------------------------------------------

     CUMULATIVE VOLUME      L**3       RATES FOR THIS TIME STEP      L**3/T          PACKAGE NAME    
     ------------------                 ------------------------                     ----------------

           IN:                                      IN:
           ---                                      ---
              STO-SS =      168484.9016                STO-SS =         215.5767     STORAGE                          
                 WEL =      195206.7918                   WEL =        1574.8212     RIV_CORR                         
                 DRN =           0.0000                   DRN =           0.0000     DRN_SYS1                         
                 RIV =      188958.8540                   RIV =        1612.1952     RIV_SYS1                         
                 RIV =           0.0000                   RIV =           0.0000     RIV_SYS2                         
                 RCH =      261811.9980                   RCH =           0.0000     RCH_MSW                          

            TOTAL IN =      814462.5454              TOTAL IN =        3402.5931

          OUT:                                     OUT:
          ----                                     ----
              STO-SS =      102259.9008                STO-SS =           0.0000     STORAGE                          
                 WEL =      210108.8420                   WEL =         631.1409     RIV_CORR                         
                 DRN =       53287.3809                   DRN =         216.1967     DRN_SYS1                         
                 RIV =      199725.2382                   RIV =         630.0398     RIV_SYS1                         
                 RIV =      143874.7081                   RIV =         590.4740     RIV_SYS2                         
                 RCH =      105209.3097                   RCH =        1334.7711     RCH_MSW                          

           TOTAL OUT =      814465.3796             TOTAL OUT =        3402.6225

            IN - OUT =          -2.8342              IN - OUT =      -2.9392E-02

 PERCENT DISCREPANCY =          -0.00     PERCENT DISCREPANCY =          -0.00




         TIME SUMMARY AT END OF TIME STEP    1 IN STRESS PERIOD  210
                    SECONDS     MINUTES      HOURS       DAYS        YEARS
                    -----------------------------------------------------------
   TIME STEP LENGTH  86400.      1440.0      24.000      1.0000     2.73785E-03
 STRESS PERIOD TIME  86400.      1440.0      24.000      1.0000     2.73785E-03
         TOTAL TIME 1.81440E+07 3.02400E+05  5040.0      210.00     0.57495    


end timestep


start timestep kper="211" kstp="1" mode="normal"

 #Stressperiod Save Options

 BEGIN READING OUTPUT CONTROL FOR STRESS PERIOD 211
      ALL TIME STEPS WILL BE SAVED
      ALL TIME STEPS WILL BE SAVED

 END READING OUTPUT CONTROL FOR STRESS PERIOD 211


 PROCESSING STORAGE PERIOD DATA
 END PROCESSING STORAGE PERIOD DATA


 STRESS PERIOD 211 IS TRANSIENT


 REUSING WELS FROM LAST STRESS PERIOD

 REUSING DRNS FROM LAST STRESS PERIOD

 REUSING RIVS FROM LAST STRESS PERIOD

 REUSING RIVS FROM LAST STRESS PERIOD

 REUSING RCHS FROM LAST STRESS PERIOD
 UBDSV06 SAVING              DRN IN MODEL GWF_1            PACKAGE GWF_1           CONNECTED TO MODEL GWF_1            PACKAGE DRN_SYS1         ON UNIT   1019 AT TIME STEP      1, STRESS PERIOD    211
 UBDSV06 SAVING              RIV IN MODEL GWF_1            PACKAGE GWF_1           CONNECTED TO MODEL GWF_1            PACKAGE RIV_SYS1         ON UNIT   1019 AT TIME STEP      1, STRESS PERIOD    211
 UBDSV06 SAVING              RIV IN MODEL GWF_1            PACKAGE GWF_1           CONNECTED TO MODEL GWF_1            PACKAGE RIV_SYS2         ON UNIT   1019 AT TIME STEP      1, STRESS PERIOD    211

 HEAD WILL BE SAVED ON UNIT 1018 AT END OF TIME STEP    1, STRESS PERIOD  211


  VOLUME BUDGET FOR ENTIRE MODEL AT END OF TIME STEP    1, STRESS PERIOD 211
  ---------------------------------------------------------------------------------------------------

     CUMULATIVE VOLUME      L**3       RATES FOR THIS TIME STEP      L**3/T          PACKAGE NAME    
     ------------------                 ------------------------                     ----------------

           IN:                                      IN:
           ---                                      ---
              STO-SS =      168694.2831                STO-SS =         209.3815     STORAGE                          
                 WEL =      196818.9870                   WEL =        1612.1952     RIV_CORR                         
                 DRN =           0.0000                   DRN =           0.0000     DRN_SYS1                         
                 RIV =      190584.1151                   RIV =        1625.2612     RIV_SYS1                         
                 RIV =           0.0000                   RIV =           0.0000     RIV_SYS2                         
                 RCH =      261811.9980                   RCH =           0.0000     RCH_MSW                          

            TOTAL IN =      817909.3833              TOTAL IN =        3446.8379

          OUT:                                     OUT:
          ----                                     ----
              STO-SS =      102259.9008                STO-SS =           0.0000     STORAGE                          
                 WEL =      210738.8818                   WEL =         630.0398     RIV_CORR                         
                 DRN =       53503.3107                   DRN =         215.9297     DRN_SYS1                         
                 RIV =      200354.1881                   RIV =         628.9500     RIV_SYS1                         
                 RIV =      144464.5406                   RIV =         589.8325     RIV_SYS2                         
                 RCH =      106591.4096                   RCH =        1382.0999     RCH_MSW                          

           TOTAL OUT =      817912.2316             TOTAL OUT =        3446.8519

            IN - OUT =          -2.8483              IN - OUT =      -1.4055E-02

 PERCENT DISCREPANCY =          -0.00     PERCENT DISCREPANCY =          -0.00




         TIME SUMMARY AT END OF TIME STEP    1 IN STRESS PERIOD  211
                    SECONDS     MINUTES      HOURS       DAYS        YEARS
                    -----------------------------------------------------------
   TIME STEP LENGTH  86400.      1440.0      24.000      1.0000     2.73785E-03
 STRESS PERIOD TIME  86400.      1440.0      24.000      1.0000     2.73785E-03
         TOTAL TIME 1.82304E+07 3.03840E+05  5064.0      211.00     0.57769    


end timestep


start timestep kper="212" kstp="1" mode="normal"

 #Stressperiod Save Options

 BEGIN READING OUTPUT CONTROL FOR STRESS PERIOD 212
      ALL TIME STEPS WILL BE SAVED
      ALL TIME STEPS WILL BE SAVED

 END READING OUTPUT CONTROL FOR STRESS PERIOD 212


 PROCESSING STORAGE PERIOD DATA
 END PROCESSING STORAGE PERIOD DATA


 STRESS PERIOD 212 IS TRANSIENT


 REUSING WELS FROM LAST STRESS PERIOD

 REUSING DRNS FROM LAST STRESS PERIOD

 REUSING RIVS FROM LAST STRESS PERIOD

 REUSING RIVS FROM LAST STRESS PERIOD

 REUSING RCHS FROM LAST STRESS PERIOD
 UBDSV06 SAVING              DRN IN MODEL GWF_1            PACKAGE GWF_1           CONNECTED TO MODEL GWF_1            PACKAGE DRN_SYS1         ON UNIT   1019 AT TIME STEP      1, STRESS PERIOD    212
 UBDSV06 SAVING              RIV IN MODEL GWF_1            PACKAGE GWF_1           CONNECTED TO MODEL GWF_1            PACKAGE RIV_SYS1         ON UNIT   1019 AT TIME STEP      1, STRESS PERIOD    212
 UBDSV06 SAVING              RIV IN MODEL GWF_1            PACKAGE GWF_1           CONNECTED TO MODEL GWF_1            PACKAGE RIV_SYS2         ON UNIT   1019 AT TIME STEP      1, STRESS PERIOD    212

 HEAD WILL BE SAVED ON UNIT 1018 AT END OF TIME STEP    1, STRESS PERIOD  212


  VOLUME BUDGET FOR ENTIRE MODEL AT END OF TIME STEP    1, STRESS PERIOD 212
  ---------------------------------------------------------------------------------------------------

     CUMULATIVE VOLUME      L**3       RATES FOR THIS TIME STEP      L**3/T          PACKAGE NAME    
     ------------------                 ------------------------                     ----------------

           IN:                                      IN:
           ---                                      ---
              STO-SS =      168764.9342                STO-SS =          70.6511     STORAGE                          
                 WEL =      198444.2482                   WEL =        1625.2612     RIV_CORR                         
                 DRN =           0.0000                   DRN =           0.0000     DRN_SYS1                         
                 RIV =      191205.2128                   RIV =         621.0977     RIV_SYS1                         
                 RIV =           0.0000                   RIV =           0.0000     RIV_SYS2                         
                 RCH =      265401.3911                   RCH =        3589.3931     RCH_MSW                          

            TOTAL IN =      823815.7863              TOTAL IN =        5906.4030

          OUT:                                     OUT:
          ----                                     ----
              STO-SS =      104824.6363                STO-SS =        2564.7355     STORAGE                          
                 WEL =      211367.8318                   WEL =         628.9500     RIV_CORR                         
                 DRN =       53719.8534                   DRN =         216.5427     DRN_SYS1                         
                 RIV =      201770.9751                   RIV =        1416.7870     RIV_SYS1                         
                 RIV =      145056.2615                   RIV =         591.7209     RIV_SYS2                         
                 RCH =      107079.0731                   RCH =         487.6635     RCH_MSW                          

           TOTAL OUT =      823818.6312             TOTAL OUT =        5906.3996

            IN - OUT =          -2.8449              IN - OUT =       3.4257E-03

 PERCENT DISCREPANCY =          -0.00     PERCENT DISCREPANCY =           0.00




         TIME SUMMARY AT END OF TIME STEP    1 IN STRESS PERIOD  212
                    SECONDS     MINUTES      HOURS       DAYS        YEARS
                    -----------------------------------------------------------
   TIME STEP LENGTH  86400.      1440.0      24.000      1.0000     2.73785E-03
 STRESS PERIOD TIME  86400.      1440.0      24.000      1.0000     2.73785E-03
         TOTAL TIME 1.83168E+07 3.05280E+05  5088.0      212.00     0.58042    


end timestep


start timestep kper="213" kstp="1" mode="normal"

 #Stressperiod Save Options

 BEGIN READING OUTPUT CONTROL FOR STRESS PERIOD 213
      ALL TIME STEPS WILL BE SAVED
      ALL TIME STEPS WILL BE SAVED

 END READING OUTPUT CONTROL FOR STRESS PERIOD 213


 PROCESSING STORAGE PERIOD DATA
 END PROCESSING STORAGE PERIOD DATA


 STRESS PERIOD 213 IS TRANSIENT


 REUSING WELS FROM LAST STRESS PERIOD

 REUSING DRNS FROM LAST STRESS PERIOD

 REUSING RIVS FROM LAST STRESS PERIOD

 REUSING RIVS FROM LAST STRESS PERIOD

 REUSING RCHS FROM LAST STRESS PERIOD
 UBDSV06 SAVING              DRN IN MODEL GWF_1            PACKAGE GWF_1           CONNECTED TO MODEL GWF_1            PACKAGE DRN_SYS1         ON UNIT   1019 AT TIME STEP      1, STRESS PERIOD    213
 UBDSV06 SAVING              RIV IN MODEL GWF_1            PACKAGE GWF_1           CONNECTED TO MODEL GWF_1            PACKAGE RIV_SYS1         ON UNIT   1019 AT TIME STEP      1, STRESS PERIOD    213
 UBDSV06 SAVING              RIV IN MODEL GWF_1            PACKAGE GWF_1           CONNECTED TO MODEL GWF_1            PACKAGE RIV_SYS2         ON UNIT   1019 AT TIME STEP      1, STRESS PERIOD    213

 HEAD WILL BE SAVED ON UNIT 1018 AT END OF TIME STEP    1, STRESS PERIOD  213


  VOLUME BUDGET FOR ENTIRE MODEL AT END OF TIME STEP    1, STRESS PERIOD 213
  ---------------------------------------------------------------------------------------------------

     CUMULATIVE VOLUME      L**3       RATES FOR THIS TIME STEP      L**3/T          PACKAGE NAME    
     ------------------                 ------------------------                     ----------------

           IN:                                      IN:
           ---                                      ---
              STO-SS =      169226.5132                STO-SS =         461.5790     STORAGE                          
                 WEL =      199065.3459                   WEL =         621.0977     RIV_CORR                         
                 DRN =           0.0000                   DRN =           0.0000     DRN_SYS1                         
                 RIV =      191530.5288                   RIV =         325.3160     RIV_SYS1                         
                 RIV =           0.0000                   RIV =           0.0000     RIV_SYS2                         
                 RCH =      273945.4391                   RCH =        8544.0480     RCH_MSW                          

            TOTAL IN =      833767.8270              TOTAL IN =        9952.0407

          OUT:                                     OUT:
          ----                                     ----
              STO-SS =      110251.7139                STO-SS =        5427.0776     STORAGE                          
                 WEL =      212784.6188                   WEL =        1416.7870     RIV_CORR                         
                 DRN =       53944.4852                   DRN =         224.6318     DRN_SYS1                         
                 RIV =      203614.1742                   RIV =        1843.1991     RIV_SYS1                         
                 RIV =      145667.6162                   RIV =         611.3547     RIV_SYS2                         
                 RCH =      107508.0597                   RCH =         428.9866     RCH_MSW                          

           TOTAL OUT =      833770.6680             TOTAL OUT =        9952.0368

            IN - OUT =          -2.8409              IN - OUT =       3.9320E-03

 PERCENT DISCREPANCY =          -0.00     PERCENT DISCREPANCY =           0.00




         TIME SUMMARY AT END OF TIME STEP    1 IN STRESS PERIOD  213
                    SECONDS     MINUTES      HOURS       DAYS        YEARS
                    -----------------------------------------------------------
   TIME STEP LENGTH  86400.      1440.0      24.000      1.0000     2.73785E-03
 STRESS PERIOD TIME  86400.      1440.0      24.000      1.0000     2.73785E-03
         TOTAL TIME 1.84032E+07 3.06720E+05  5112.0      213.00     0.58316    


end timestep


start timestep kper="214" kstp="1" mode="normal"

 #Stressperiod Save Options

 BEGIN READING OUTPUT CONTROL FOR STRESS PERIOD 214
      ALL TIME STEPS WILL BE SAVED
      ALL TIME STEPS WILL BE SAVED

 END READING OUTPUT CONTROL FOR STRESS PERIOD 214


 PROCESSING STORAGE PERIOD DATA
 END PROCESSING STORAGE PERIOD DATA


 STRESS PERIOD 214 IS TRANSIENT


 REUSING WELS FROM LAST STRESS PERIOD

 REUSING DRNS FROM LAST STRESS PERIOD

 REUSING RIVS FROM LAST STRESS PERIOD

 REUSING RIVS FROM LAST STRESS PERIOD

 REUSING RCHS FROM LAST STRESS PERIOD
 UBDSV06 SAVING              DRN IN MODEL GWF_1            PACKAGE GWF_1           CONNECTED TO MODEL GWF_1            PACKAGE DRN_SYS1         ON UNIT   1019 AT TIME STEP      1, STRESS PERIOD    214
 UBDSV06 SAVING              RIV IN MODEL GWF_1            PACKAGE GWF_1           CONNECTED TO MODEL GWF_1            PACKAGE RIV_SYS1         ON UNIT   1019 AT TIME STEP      1, STRESS PERIOD    214
 UBDSV06 SAVING              RIV IN MODEL GWF_1            PACKAGE GWF_1           CONNECTED TO MODEL GWF_1            PACKAGE RIV_SYS2         ON UNIT   1019 AT TIME STEP      1, STRESS PERIOD    214

 HEAD WILL BE SAVED ON UNIT 1018 AT END OF TIME STEP    1, STRESS PERIOD  214


  VOLUME BUDGET FOR ENTIRE MODEL AT END OF TIME STEP    1, STRESS PERIOD 214
  ---------------------------------------------------------------------------------------------------

     CUMULATIVE VOLUME      L**3       RATES FOR THIS TIME STEP      L**3/T          PACKAGE NAME    
     ------------------                 ------------------------                     ----------------

           IN:                                      IN:
           ---                                      ---
              STO-SS =      171371.4091                STO-SS =        2144.8959     STORAGE                          
                 WEL =      199390.6618                   WEL =         325.3160     RIV_CORR                         
                 DRN =           0.0000                   DRN =           0.0000     DRN_SYS1                         
                 RIV =      192680.0291                   RIV =        1149.5003     RIV_SYS1                         
                 RIV =           0.0000                   RIV =           0.0000     RIV_SYS2                         
                 RCH =      275444.6146                   RCH =        1499.1755     RCH_MSW                          

            TOTAL IN =      838886.7147              TOTAL IN =        5118.8877

          OUT:                                     OUT:
          ----                                     ----
              STO-SS =      111493.7863                STO-SS =        1242.0725     STORAGE                          
                 WEL =      214627.8179                   WEL =        1843.1991     RIV_CORR                         
                 DRN =       54173.3510                   DRN =         228.8658     DRN_SYS1                         
                 RIV =      204345.1393                   RIV =         730.9651     RIV_SYS1                         
                 RIV =      146289.5095                   RIV =         621.8933     RIV_SYS2                         
                 RCH =      107959.9379                   RCH =         451.8782     RCH_MSW                          

           TOTAL OUT =      838889.5419             TOTAL OUT =        5118.8740

            IN - OUT =          -2.8273              IN - OUT =       1.3671E-02

 PERCENT DISCREPANCY =          -0.00     PERCENT DISCREPANCY =           0.00




         TIME SUMMARY AT END OF TIME STEP    1 IN STRESS PERIOD  214
                    SECONDS     MINUTES      HOURS       DAYS        YEARS
                    -----------------------------------------------------------
   TIME STEP LENGTH  86400.      1440.0      24.000      1.0000     2.73785E-03
 STRESS PERIOD TIME  86400.      1440.0      24.000      1.0000     2.73785E-03
         TOTAL TIME 1.84896E+07 3.08160E+05  5136.0      214.00     0.58590    


end timestep


start timestep kper="215" kstp="1" mode="normal"

 #Stressperiod Save Options

 BEGIN READING OUTPUT CONTROL FOR STRESS PERIOD 215
      ALL TIME STEPS WILL BE SAVED
      ALL TIME STEPS WILL BE SAVED

 END READING OUTPUT CONTROL FOR STRESS PERIOD 215


 PROCESSING STORAGE PERIOD DATA
 END PROCESSING STORAGE PERIOD DATA


 STRESS PERIOD 215 IS TRANSIENT


 REUSING WELS FROM LAST STRESS PERIOD

 REUSING DRNS FROM LAST STRESS PERIOD

 REUSING RIVS FROM LAST STRESS PERIOD

 REUSING RIVS FROM LAST STRESS PERIOD

 REUSING RCHS FROM LAST STRESS PERIOD
 UBDSV06 SAVING              DRN IN MODEL GWF_1            PACKAGE GWF_1           CONNECTED TO MODEL GWF_1            PACKAGE DRN_SYS1         ON UNIT   1019 AT TIME STEP      1, STRESS PERIOD    215
 UBDSV06 SAVING              RIV IN MODEL GWF_1            PACKAGE GWF_1           CONNECTED TO MODEL GWF_1            PACKAGE RIV_SYS1         ON UNIT   1019 AT TIME STEP      1, STRESS PERIOD    215
 UBDSV06 SAVING              RIV IN MODEL GWF_1            PACKAGE GWF_1           CONNECTED TO MODEL GWF_1            PACKAGE RIV_SYS2         ON UNIT   1019 AT TIME STEP      1, STRESS PERIOD    215

 HEAD WILL BE SAVED ON UNIT 1018 AT END OF TIME STEP    1, STRESS PERIOD  215


  VOLUME BUDGET FOR ENTIRE MODEL AT END OF TIME STEP    1, STRESS PERIOD 215
  ---------------------------------------------------------------------------------------------------

     CUMULATIVE VOLUME      L**3       RATES FOR THIS TIME STEP      L**3/T          PACKAGE NAME    
     ------------------                 ------------------------                     ----------------

           IN:                                      IN:
           ---                                      ---
              STO-SS =      172210.1543                STO-SS =         838.7451     STORAGE                          
                 WEL =      200540.1621                   WEL =        1149.5003     RIV_CORR                         
                 DRN =           0.0000                   DRN =           0.0000     DRN_SYS1                         
                 RIV =      193637.0473                   RIV =         957.0183     RIV_SYS1                         
                 RIV =           0.0000                   RIV =           0.0000     RIV_SYS2                         
                 RCH =      276198.0586                   RCH =         753.4440     RCH_MSW                          

            TOTAL IN =      842585.4223              TOTAL IN =        3698.7076

          OUT:                                     OUT:
          ----                                     ----
              STO-SS =      112311.7756                STO-SS =         817.9893     STORAGE                          
                 WEL =      215358.7829                   WEL =         730.9651     RIV_CORR                         
                 DRN =       54403.6852                   DRN =         230.3342     DRN_SYS1                         
                 RIV =      205074.2572                   RIV =         729.1179     RIV_SYS1                         
                 RIV =      146915.0303                   RIV =         625.5208     RIV_SYS2                         
                 RCH =      108524.7914                   RCH =         564.8535     RCH_MSW                          

           TOTAL OUT =      842588.3227             TOTAL OUT =        3698.7808

            IN - OUT =          -2.9004              IN - OUT =      -7.3163E-02

 PERCENT DISCREPANCY =          -0.00     PERCENT DISCREPANCY =          -0.00




         TIME SUMMARY AT END OF TIME STEP    1 IN STRESS PERIOD  215
                    SECONDS     MINUTES      HOURS       DAYS        YEARS
                    -----------------------------------------------------------
   TIME STEP LENGTH  86400.      1440.0      24.000      1.0000     2.73785E-03
 STRESS PERIOD TIME  86400.      1440.0      24.000      1.0000     2.73785E-03
         TOTAL TIME 1.85760E+07 3.09600E+05  5160.0      215.00     0.58864    


end timestep


start timestep kper="216" kstp="1" mode="normal"

 #Stressperiod Save Options

 BEGIN READING OUTPUT CONTROL FOR STRESS PERIOD 216
      ALL TIME STEPS WILL BE SAVED
      ALL TIME STEPS WILL BE SAVED

 END READING OUTPUT CONTROL FOR STRESS PERIOD 216


 PROCESSING STORAGE PERIOD DATA
 END PROCESSING STORAGE PERIOD DATA


 STRESS PERIOD 216 IS TRANSIENT


 REUSING WELS FROM LAST STRESS PERIOD

 REUSING DRNS FROM LAST STRESS PERIOD

 REUSING RIVS FROM LAST STRESS PERIOD

 REUSING RIVS FROM LAST STRESS PERIOD

 REUSING RCHS FROM LAST STRESS PERIOD
 UBDSV06 SAVING              DRN IN MODEL GWF_1            PACKAGE GWF_1           CONNECTED TO MODEL GWF_1            PACKAGE DRN_SYS1         ON UNIT   1019 AT TIME STEP      1, STRESS PERIOD    216
 UBDSV06 SAVING              RIV IN MODEL GWF_1            PACKAGE GWF_1           CONNECTED TO MODEL GWF_1            PACKAGE RIV_SYS1         ON UNIT   1019 AT TIME STEP      1, STRESS PERIOD    216
 UBDSV06 SAVING              RIV IN MODEL GWF_1            PACKAGE GWF_1           CONNECTED TO MODEL GWF_1            PACKAGE RIV_SYS2         ON UNIT   1019 AT TIME STEP      1, STRESS PERIOD    216

 HEAD WILL BE SAVED ON UNIT 1018 AT END OF TIME STEP    1, STRESS PERIOD  216


  VOLUME BUDGET FOR ENTIRE MODEL AT END OF TIME STEP    1, STRESS PERIOD 216
  ---------------------------------------------------------------------------------------------------

     CUMULATIVE VOLUME      L**3       RATES FOR THIS TIME STEP      L**3/T          PACKAGE NAME    
     ------------------                 ------------------------                     ----------------

           IN:                                      IN:
           ---                                      ---
              STO-SS =      173079.2636                STO-SS =         869.1093     STORAGE                          
                 WEL =      201497.1803                   WEL =         957.0183     RIV_CORR                         
                 DRN =           0.0000                   DRN =           0.0000     DRN_SYS1                         
                 RIV =      194839.0694                   RIV =        1202.0221     RIV_SYS1                         
                 RIV =           0.0000                   RIV =           0.0000     RIV_SYS2                         
                 RCH =      276645.3503                   RCH =         447.2917     RCH_MSW                          

            TOTAL IN =      846060.8637              TOTAL IN =        3475.4414

          OUT:                                     OUT:
          ----                                     ----
              STO-SS =      112767.0433                STO-SS =         455.2677     STORAGE                          
                 WEL =      216087.9008                   WEL =         729.1179     RIV_CORR                         
                 DRN =       54634.1132                   DRN =         230.4280     DRN_SYS1                         
                 RIV =      205786.8372                   RIV =         712.5800     RIV_SYS1                         
                 RIV =      147540.6548                   RIV =         625.6245     RIV_SYS2                         
                 RCH =      109247.1681                   RCH =         722.3767     RCH_MSW                          

           TOTAL OUT =      846063.7175             TOTAL OUT =        3475.3948

            IN - OUT =          -2.8538              IN - OUT =       4.6628E-02

 PERCENT DISCREPANCY =          -0.00     PERCENT DISCREPANCY =           0.00




         TIME SUMMARY AT END OF TIME STEP    1 IN STRESS PERIOD  216
                    SECONDS     MINUTES      HOURS       DAYS        YEARS
                    -----------------------------------------------------------
   TIME STEP LENGTH  86400.      1440.0      24.000      1.0000     2.73785E-03
 STRESS PERIOD TIME  86400.      1440.0      24.000      1.0000     2.73785E-03
         TOTAL TIME 1.86624E+07 3.11040E+05  5184.0      216.00     0.59138    


end timestep


start timestep kper="217" kstp="1" mode="normal"

 #Stressperiod Save Options

 BEGIN READING OUTPUT CONTROL FOR STRESS PERIOD 217
      ALL TIME STEPS WILL BE SAVED
      ALL TIME STEPS WILL BE SAVED

 END READING OUTPUT CONTROL FOR STRESS PERIOD 217


 PROCESSING STORAGE PERIOD DATA
 END PROCESSING STORAGE PERIOD DATA


 STRESS PERIOD 217 IS TRANSIENT


 REUSING WELS FROM LAST STRESS PERIOD

 REUSING DRNS FROM LAST STRESS PERIOD

 REUSING RIVS FROM LAST STRESS PERIOD

 REUSING RIVS FROM LAST STRESS PERIOD

 REUSING RCHS FROM LAST STRESS PERIOD
 UBDSV06 SAVING              DRN IN MODEL GWF_1            PACKAGE GWF_1           CONNECTED TO MODEL GWF_1            PACKAGE DRN_SYS1         ON UNIT   1019 AT TIME STEP      1, STRESS PERIOD    217
 UBDSV06 SAVING              RIV IN MODEL GWF_1            PACKAGE GWF_1           CONNECTED TO MODEL GWF_1            PACKAGE RIV_SYS1         ON UNIT   1019 AT TIME STEP      1, STRESS PERIOD    217
 UBDSV06 SAVING              RIV IN MODEL GWF_1            PACKAGE GWF_1           CONNECTED TO MODEL GWF_1            PACKAGE RIV_SYS2         ON UNIT   1019 AT TIME STEP      1, STRESS PERIOD    217

 HEAD WILL BE SAVED ON UNIT 1018 AT END OF TIME STEP    1, STRESS PERIOD  217


  VOLUME BUDGET FOR ENTIRE MODEL AT END OF TIME STEP    1, STRESS PERIOD 217
  ---------------------------------------------------------------------------------------------------

     CUMULATIVE VOLUME      L**3       RATES FOR THIS TIME STEP      L**3/T          PACKAGE NAME    
     ------------------                 ------------------------                     ----------------

           IN:                                      IN:
           ---                                      ---
              STO-SS =      173620.3101                STO-SS =         541.0465     STORAGE                          
                 WEL =      202699.2025                   WEL =        1202.0221     RIV_CORR                         
                 DRN =           0.0000                   DRN =           0.0000     DRN_SYS1                         
                 RIV =      195999.0064                   RIV =        1159.9370     RIV_SYS1                         
                 RIV =           0.0000                   RIV =           0.0000     RIV_SYS2                         
                 RCH =      276930.0850                   RCH =         284.7347     RCH_MSW                          

            TOTAL IN =      849248.6040              TOTAL IN =        3187.7403

          OUT:                                     OUT:
          ----                                     ----
              STO-SS =      113078.5033                STO-SS =         311.4599     STORAGE                          
                 WEL =      216800.4809                   WEL =         712.5800     RIV_CORR                         
                 DRN =       54864.1360                   DRN =         230.0228     DRN_SYS1                         
                 RIV =      206490.7058                   RIV =         703.8686     RIV_SYS1                         
                 RIV =      148165.0997                   RIV =         624.4449     RIV_SYS2                         
                 RCH =      109852.6317                   RCH =         605.4636     RCH_MSW                          

           TOTAL OUT =      849251.5573             TOTAL OUT =        3187.8398

            IN - OUT =          -2.9533              IN - OUT =      -9.9523E-02

 PERCENT DISCREPANCY =          -0.00     PERCENT DISCREPANCY =          -0.00




         TIME SUMMARY AT END OF TIME STEP    1 IN STRESS PERIOD  217
                    SECONDS     MINUTES      HOURS       DAYS        YEARS
                    -----------------------------------------------------------
   TIME STEP LENGTH  86400.      1440.0      24.000      1.0000     2.73785E-03
 STRESS PERIOD TIME  86400.      1440.0      24.000      1.0000     2.73785E-03
         TOTAL TIME 1.87488E+07 3.12480E+05  5208.0      217.00     0.59411    


end timestep


start timestep kper="218" kstp="1" mode="normal"

 #Stressperiod Save Options

 BEGIN READING OUTPUT CONTROL FOR STRESS PERIOD 218
      ALL TIME STEPS WILL BE SAVED
      ALL TIME STEPS WILL BE SAVED

 END READING OUTPUT CONTROL FOR STRESS PERIOD 218


 PROCESSING STORAGE PERIOD DATA
 END PROCESSING STORAGE PERIOD DATA


 STRESS PERIOD 218 IS TRANSIENT


 REUSING WELS FROM LAST STRESS PERIOD

 REUSING DRNS FROM LAST STRESS PERIOD

 REUSING RIVS FROM LAST STRESS PERIOD

 REUSING RIVS FROM LAST STRESS PERIOD

 REUSING RCHS FROM LAST STRESS PERIOD
 UBDSV06 SAVING              DRN IN MODEL GWF_1            PACKAGE GWF_1           CONNECTED TO MODEL GWF_1            PACKAGE DRN_SYS1         ON UNIT   1019 AT TIME STEP      1, STRESS PERIOD    218
 UBDSV06 SAVING              RIV IN MODEL GWF_1            PACKAGE GWF_1           CONNECTED TO MODEL GWF_1            PACKAGE RIV_SYS1         ON UNIT   1019 AT TIME STEP      1, STRESS PERIOD    218
 UBDSV06 SAVING              RIV IN MODEL GWF_1            PACKAGE GWF_1           CONNECTED TO MODEL GWF_1            PACKAGE RIV_SYS2         ON UNIT   1019 AT TIME STEP      1, STRESS PERIOD    218

 HEAD WILL BE SAVED ON UNIT 1018 AT END OF TIME STEP    1, STRESS PERIOD  218


  VOLUME BUDGET FOR ENTIRE MODEL AT END OF TIME STEP    1, STRESS PERIOD 218
  ---------------------------------------------------------------------------------------------------

     CUMULATIVE VOLUME      L**3       RATES FOR THIS TIME STEP      L**3/T          PACKAGE NAME    
     ------------------                 ------------------------                     ----------------

           IN:                                      IN:
           ---                                      ---
              STO-SS =      174189.0378                STO-SS =         568.7277     STORAGE                          
                 WEL =      203859.1395                   WEL =        1159.9370     RIV_CORR                         
                 DRN =           0.0000                   DRN =           0.0000     DRN_SYS1                         
                 RIV =      197306.4992                   RIV =        1307.4928     RIV_SYS1                         
                 RIV =           0.0000                   RIV =           0.0000     RIV_SYS2                         
                 RCH =      277116.8234                   RCH =         186.7384     RCH_MSW                          

            TOTAL IN =      852471.4999              TOTAL IN =        3222.8959

          OUT:                                     OUT:
          ----                                     ----
              STO-SS =      113262.2635                STO-SS =         183.7603     STORAGE                          
                 WEL =      217504.3495                   WEL =         703.8686     RIV_CORR                         
                 DRN =       55093.5460                   DRN =         229.4100     DRN_SYS1                         
                 RIV =      207186.3356                   RIV =         695.6298     RIV_SYS1                         
                 RIV =      148787.8304                   RIV =         622.7307     RIV_SYS2                         
                 RCH =      110640.1304                   RCH =         787.4987     RCH_MSW                          

           TOTAL OUT =      852474.4554             TOTAL OUT =        3222.8981

            IN - OUT =          -2.9555              IN - OUT =      -2.1368E-03

 PERCENT DISCREPANCY =          -0.00     PERCENT DISCREPANCY =          -0.00




         TIME SUMMARY AT END OF TIME STEP    1 IN STRESS PERIOD  218
                    SECONDS     MINUTES      HOURS       DAYS        YEARS
                    -----------------------------------------------------------
   TIME STEP LENGTH  86400.      1440.0      24.000      1.0000     2.73785E-03
 STRESS PERIOD TIME  86400.      1440.0      24.000      1.0000     2.73785E-03
         TOTAL TIME 1.88352E+07 3.13920E+05  5232.0      218.00     0.59685    


end timestep


start timestep kper="219" kstp="1" mode="normal"

 #Stressperiod Save Options

 BEGIN READING OUTPUT CONTROL FOR STRESS PERIOD 219
      ALL TIME STEPS WILL BE SAVED
      ALL TIME STEPS WILL BE SAVED

 END READING OUTPUT CONTROL FOR STRESS PERIOD 219


 PROCESSING STORAGE PERIOD DATA
 END PROCESSING STORAGE PERIOD DATA


 STRESS PERIOD 219 IS TRANSIENT


 REUSING WELS FROM LAST STRESS PERIOD

 REUSING DRNS FROM LAST STRESS PERIOD

 REUSING RIVS FROM LAST STRESS PERIOD

 REUSING RIVS FROM LAST STRESS PERIOD

 REUSING RCHS FROM LAST STRESS PERIOD
 UBDSV06 SAVING              DRN IN MODEL GWF_1            PACKAGE GWF_1           CONNECTED TO MODEL GWF_1            PACKAGE DRN_SYS1         ON UNIT   1019 AT TIME STEP      1, STRESS PERIOD    219
 UBDSV06 SAVING              RIV IN MODEL GWF_1            PACKAGE GWF_1           CONNECTED TO MODEL GWF_1            PACKAGE RIV_SYS1         ON UNIT   1019 AT TIME STEP      1, STRESS PERIOD    219
 UBDSV06 SAVING              RIV IN MODEL GWF_1            PACKAGE GWF_1           CONNECTED TO MODEL GWF_1            PACKAGE RIV_SYS2         ON UNIT   1019 AT TIME STEP      1, STRESS PERIOD    219

 HEAD WILL BE SAVED ON UNIT 1018 AT END OF TIME STEP    1, STRESS PERIOD  219


  VOLUME BUDGET FOR ENTIRE MODEL AT END OF TIME STEP    1, STRESS PERIOD 219
  ---------------------------------------------------------------------------------------------------

     CUMULATIVE VOLUME      L**3       RATES FOR THIS TIME STEP      L**3/T          PACKAGE NAME    
     ------------------                 ------------------------                     ----------------

           IN:                                      IN:
           ---                                      ---
              STO-SS =      174619.3018                STO-SS =         430.2640     STORAGE                          
                 WEL =      205166.6323                   WEL =        1307.4928     RIV_CORR                         
                 DRN =           0.0000                   DRN =           0.0000     DRN_SYS1                         
                 RIV =      198601.1632                   RIV =        1294.6639     RIV_SYS1                         
                 RIV =           0.0000                   RIV =           0.0000     RIV_SYS2                         
                 RCH =      277236.5590                   RCH =         119.7356     RCH_MSW                          

            TOTAL IN =      855623.6563              TOTAL IN =        3152.1563

          OUT:                                     OUT:
          ----                                     ----
              STO-SS =      113387.1139                STO-SS =         124.8503     STORAGE                          
                 WEL =      218199.9793                   WEL =         695.6298     RIV_CORR                         
                 DRN =       55322.2912                   DRN =         228.7452     DRN_SYS1                         
                 RIV =      207876.2202                   RIV =         689.8846     RIV_SYS1                         
                 RIV =      149408.7461                   RIV =         620.9157     RIV_SYS2                         
                 RCH =      111432.3708                   RCH =         792.2403     RCH_MSW                          

           TOTAL OUT =      855626.7214             TOTAL OUT =        3152.2660

            IN - OUT =          -3.0651              IN - OUT =          -0.1096

 PERCENT DISCREPANCY =          -0.00     PERCENT DISCREPANCY =          -0.00




         TIME SUMMARY AT END OF TIME STEP    1 IN STRESS PERIOD  219
                    SECONDS     MINUTES      HOURS       DAYS        YEARS
                    -----------------------------------------------------------
   TIME STEP LENGTH  86400.      1440.0      24.000      1.0000     2.73785E-03
 STRESS PERIOD TIME  86400.      1440.0      24.000      1.0000     2.73785E-03
         TOTAL TIME 1.89216E+07 3.15360E+05  5256.0      219.00     0.59959    


end timestep


start timestep kper="220" kstp="1" mode="normal"

 #Stressperiod Save Options

 BEGIN READING OUTPUT CONTROL FOR STRESS PERIOD 220
      ALL TIME STEPS WILL BE SAVED
      ALL TIME STEPS WILL BE SAVED

 END READING OUTPUT CONTROL FOR STRESS PERIOD 220


 PROCESSING STORAGE PERIOD DATA
 END PROCESSING STORAGE PERIOD DATA


 STRESS PERIOD 220 IS TRANSIENT


 REUSING WELS FROM LAST STRESS PERIOD

 REUSING DRNS FROM LAST STRESS PERIOD

 REUSING RIVS FROM LAST STRESS PERIOD

 REUSING RIVS FROM LAST STRESS PERIOD

 REUSING RCHS FROM LAST STRESS PERIOD
 UBDSV06 SAVING              DRN IN MODEL GWF_1            PACKAGE GWF_1           CONNECTED TO MODEL GWF_1            PACKAGE DRN_SYS1         ON UNIT   1019 AT TIME STEP      1, STRESS PERIOD    220
 UBDSV06 SAVING              RIV IN MODEL GWF_1            PACKAGE GWF_1           CONNECTED TO MODEL GWF_1            PACKAGE RIV_SYS1         ON UNIT   1019 AT TIME STEP      1, STRESS PERIOD    220
 UBDSV06 SAVING              RIV IN MODEL GWF_1            PACKAGE GWF_1           CONNECTED TO MODEL GWF_1            PACKAGE RIV_SYS2         ON UNIT   1019 AT TIME STEP      1, STRESS PERIOD    220

 HEAD WILL BE SAVED ON UNIT 1018 AT END OF TIME STEP    1, STRESS PERIOD  220


  VOLUME BUDGET FOR ENTIRE MODEL AT END OF TIME STEP    1, STRESS PERIOD 220
  ---------------------------------------------------------------------------------------------------

     CUMULATIVE VOLUME      L**3       RATES FOR THIS TIME STEP      L**3/T          PACKAGE NAME    
     ------------------                 ------------------------                     ----------------

           IN:                                      IN:
           ---                                      ---
              STO-SS =      175083.8838                STO-SS =         464.5820     STORAGE                          
                 WEL =      206461.2962                   WEL =        1294.6639     RIV_CORR                         
                 DRN =           0.0000                   DRN =           0.0000     DRN_SYS1                         
                 RIV =      199989.7978                   RIV =        1388.6346     RIV_SYS1                         
                 RIV =           0.0000                   RIV =           0.0000     RIV_SYS2                         
                 RCH =      277306.7231                   RCH =          70.1641     RCH_MSW                          

            TOTAL IN =      858841.7010              TOTAL IN =        3218.0447

          OUT:                                     OUT:
          ----                                     ----
              STO-SS =      113461.1886                STO-SS =          74.0748     STORAGE                          
                 WEL =      218889.8639                   WEL =         689.8846     RIV_CORR                         
                 DRN =       55550.3580                   DRN =         228.0668     DRN_SYS1                         
                 RIV =      208560.7463                   RIV =         684.5261     RIV_SYS1                         
                 RIV =      150027.8337                   RIV =         619.0876     RIV_SYS2                         
                 RCH =      112354.7878                   RCH =         922.4171     RCH_MSW                          

           TOTAL OUT =      858844.7784             TOTAL OUT =        3218.0570

            IN - OUT =          -3.0774              IN - OUT =      -1.2291E-02

 PERCENT DISCREPANCY =          -0.00     PERCENT DISCREPANCY =          -0.00




         TIME SUMMARY AT END OF TIME STEP    1 IN STRESS PERIOD  220
                    SECONDS     MINUTES      HOURS       DAYS        YEARS
                    -----------------------------------------------------------
   TIME STEP LENGTH  86400.      1440.0      24.000      1.0000     2.73785E-03
 STRESS PERIOD TIME  86400.      1440.0      24.000      1.0000     2.73785E-03
         TOTAL TIME 1.90080E+07 3.16800E+05  5280.0      220.00     0.60233    


end timestep


start timestep kper="221" kstp="1" mode="normal"

 #Stressperiod Save Options

 BEGIN READING OUTPUT CONTROL FOR STRESS PERIOD 221
      ALL TIME STEPS WILL BE SAVED
      ALL TIME STEPS WILL BE SAVED

 END READING OUTPUT CONTROL FOR STRESS PERIOD 221


 PROCESSING STORAGE PERIOD DATA
 END PROCESSING STORAGE PERIOD DATA


 STRESS PERIOD 221 IS TRANSIENT


 REUSING WELS FROM LAST STRESS PERIOD

 REUSING DRNS FROM LAST STRESS PERIOD

 REUSING RIVS FROM LAST STRESS PERIOD

 REUSING RIVS FROM LAST STRESS PERIOD

 REUSING RCHS FROM LAST STRESS PERIOD
 UBDSV06 SAVING              DRN IN MODEL GWF_1            PACKAGE GWF_1           CONNECTED TO MODEL GWF_1            PACKAGE DRN_SYS1         ON UNIT   1019 AT TIME STEP      1, STRESS PERIOD    221
 UBDSV06 SAVING              RIV IN MODEL GWF_1            PACKAGE GWF_1           CONNECTED TO MODEL GWF_1            PACKAGE RIV_SYS1         ON UNIT   1019 AT TIME STEP      1, STRESS PERIOD    221
 UBDSV06 SAVING              RIV IN MODEL GWF_1            PACKAGE GWF_1           CONNECTED TO MODEL GWF_1            PACKAGE RIV_SYS2         ON UNIT   1019 AT TIME STEP      1, STRESS PERIOD    221

 HEAD WILL BE SAVED ON UNIT 1018 AT END OF TIME STEP    1, STRESS PERIOD  221


  VOLUME BUDGET FOR ENTIRE MODEL AT END OF TIME STEP    1, STRESS PERIOD 221
  ---------------------------------------------------------------------------------------------------

     CUMULATIVE VOLUME      L**3       RATES FOR THIS TIME STEP      L**3/T          PACKAGE NAME    
     ------------------                 ------------------------                     ----------------

           IN:                                      IN:
           ---                                      ---
              STO-SS =      175476.2390                STO-SS =         392.3553     STORAGE                          
                 WEL =      207849.9309                   WEL =        1388.6346     RIV_CORR                         
                 DRN =           0.0000                   DRN =           0.0000     DRN_SYS1                         
                 RIV =      201376.5873                   RIV =        1386.7895     RIV_SYS1                         
                 RIV =           0.0000                   RIV =           0.0000     RIV_SYS2                         
                 RCH =      277349.7667                   RCH =          43.0436     RCH_MSW                          

            TOTAL IN =      862052.5239              TOTAL IN =        3210.8230

          OUT:                                     OUT:
          ----                                     ----
              STO-SS =      113509.4869                STO-SS =          48.2983     STORAGE                          
                 WEL =      219574.3899                   WEL =         684.5261     RIV_CORR                         
                 DRN =       55777.7649                   DRN =         227.4069     DRN_SYS1                         
                 RIV =      209240.7390                   RIV =         679.9927     RIV_SYS1                         
                 RIV =      150645.1675                   RIV =         617.3338     RIV_SYS2                         
                 RCH =      113308.0719                   RCH =         953.2840     RCH_MSW                          

           TOTAL OUT =      862055.6201             TOTAL OUT =        3210.8417

            IN - OUT =          -3.0962              IN - OUT =      -1.8783E-02

 PERCENT DISCREPANCY =          -0.00     PERCENT DISCREPANCY =          -0.00




         TIME SUMMARY AT END OF TIME STEP    1 IN STRESS PERIOD  221
                    SECONDS     MINUTES      HOURS       DAYS        YEARS
                    -----------------------------------------------------------
   TIME STEP LENGTH  86400.      1440.0      24.000      1.0000     2.73785E-03
 STRESS PERIOD TIME  86400.      1440.0      24.000      1.0000     2.73785E-03
         TOTAL TIME 1.90944E+07 3.18240E+05  5304.0      221.00     0.60507    


end timestep


start timestep kper="222" kstp="1" mode="normal"

 #Stressperiod Save Options

 BEGIN READING OUTPUT CONTROL FOR STRESS PERIOD 222
      ALL TIME STEPS WILL BE SAVED
      ALL TIME STEPS WILL BE SAVED

 END READING OUTPUT CONTROL FOR STRESS PERIOD 222


 PROCESSING STORAGE PERIOD DATA
 END PROCESSING STORAGE PERIOD DATA


 STRESS PERIOD 222 IS TRANSIENT


 REUSING WELS FROM LAST STRESS PERIOD

 REUSING DRNS FROM LAST STRESS PERIOD

 REUSING RIVS FROM LAST STRESS PERIOD

 REUSING RIVS FROM LAST STRESS PERIOD

 REUSING RCHS FROM LAST STRESS PERIOD
 UBDSV06 SAVING              DRN IN MODEL GWF_1            PACKAGE GWF_1           CONNECTED TO MODEL GWF_1            PACKAGE DRN_SYS1         ON UNIT   1019 AT TIME STEP      1, STRESS PERIOD    222
 UBDSV06 SAVING              RIV IN MODEL GWF_1            PACKAGE GWF_1           CONNECTED TO MODEL GWF_1            PACKAGE RIV_SYS1         ON UNIT   1019 AT TIME STEP      1, STRESS PERIOD    222
 UBDSV06 SAVING              RIV IN MODEL GWF_1            PACKAGE GWF_1           CONNECTED TO MODEL GWF_1            PACKAGE RIV_SYS2         ON UNIT   1019 AT TIME STEP      1, STRESS PERIOD    222

 HEAD WILL BE SAVED ON UNIT 1018 AT END OF TIME STEP    1, STRESS PERIOD  222


  VOLUME BUDGET FOR ENTIRE MODEL AT END OF TIME STEP    1, STRESS PERIOD 222
  ---------------------------------------------------------------------------------------------------

     CUMULATIVE VOLUME      L**3       RATES FOR THIS TIME STEP      L**3/T          PACKAGE NAME    
     ------------------                 ------------------------                     ----------------

           IN:                                      IN:
           ---                                      ---
              STO-SS =      175774.5375                STO-SS =         298.2984     STORAGE                          
                 WEL =      209236.7204                   WEL =        1386.7895     RIV_CORR                         
                 DRN =           0.0000                   DRN =           0.0000     DRN_SYS1                         
                 RIV =      202686.7473                   RIV =        1310.1600     RIV_SYS1                         
                 RIV =           0.0000                   RIV =           0.0000     RIV_SYS2                         
                 RCH =      277379.5119                   RCH =          29.7452     RCH_MSW                          

            TOTAL IN =      865077.5170              TOTAL IN =        3024.9931

          OUT:                                     OUT:
          ----                                     ----
              STO-SS =      113569.0399                STO-SS =          59.5530     STORAGE                          
                 WEL =      220254.3826                   WEL =         679.9927     RIV_CORR                         
                 DRN =       56004.5688                   DRN =         226.8039     DRN_SYS1                         
                 RIV =      209917.2006                   RIV =         676.4616     RIV_SYS1                         
                 RIV =      151260.9371                   RIV =         615.7695     RIV_SYS2                         
                 RCH =      114074.4860                   RCH =         766.4141     RCH_MSW                          

           TOTAL OUT =      865080.6149             TOTAL OUT =        3024.9948

            IN - OUT =          -3.0978              IN - OUT =      -1.6590E-03

 PERCENT DISCREPANCY =          -0.00     PERCENT DISCREPANCY =          -0.00




         TIME SUMMARY AT END OF TIME STEP    1 IN STRESS PERIOD  222
                    SECONDS     MINUTES      HOURS       DAYS        YEARS
                    -----------------------------------------------------------
   TIME STEP LENGTH  86400.      1440.0      24.000      1.0000     2.73785E-03
 STRESS PERIOD TIME  86400.      1440.0      24.000      1.0000     2.73785E-03
         TOTAL TIME 1.91808E+07 3.19680E+05  5328.0      222.00     0.60780    


end timestep


start timestep kper="223" kstp="1" mode="normal"

 #Stressperiod Save Options

 BEGIN READING OUTPUT CONTROL FOR STRESS PERIOD 223
      ALL TIME STEPS WILL BE SAVED
      ALL TIME STEPS WILL BE SAVED

 END READING OUTPUT CONTROL FOR STRESS PERIOD 223


 PROCESSING STORAGE PERIOD DATA
 END PROCESSING STORAGE PERIOD DATA


 STRESS PERIOD 223 IS TRANSIENT


 REUSING WELS FROM LAST STRESS PERIOD

 REUSING DRNS FROM LAST STRESS PERIOD

 REUSING RIVS FROM LAST STRESS PERIOD

 REUSING RIVS FROM LAST STRESS PERIOD

 REUSING RCHS FROM LAST STRESS PERIOD
 UBDSV06 SAVING              DRN IN MODEL GWF_1            PACKAGE GWF_1           CONNECTED TO MODEL GWF_1            PACKAGE DRN_SYS1         ON UNIT   1019 AT TIME STEP      1, STRESS PERIOD    223
 UBDSV06 SAVING              RIV IN MODEL GWF_1            PACKAGE GWF_1           CONNECTED TO MODEL GWF_1            PACKAGE RIV_SYS1         ON UNIT   1019 AT TIME STEP      1, STRESS PERIOD    223
 UBDSV06 SAVING              RIV IN MODEL GWF_1            PACKAGE GWF_1           CONNECTED TO MODEL GWF_1            PACKAGE RIV_SYS2         ON UNIT   1019 AT TIME STEP      1, STRESS PERIOD    223

 HEAD WILL BE SAVED ON UNIT 1018 AT END OF TIME STEP    1, STRESS PERIOD  223


  VOLUME BUDGET FOR ENTIRE MODEL AT END OF TIME STEP    1, STRESS PERIOD 223
  ---------------------------------------------------------------------------------------------------

     CUMULATIVE VOLUME      L**3       RATES FOR THIS TIME STEP      L**3/T          PACKAGE NAME    
     ------------------                 ------------------------                     ----------------

           IN:                                      IN:
           ---                                      ---
              STO-SS =      176026.0983                STO-SS =         251.5608     STORAGE                          
                 WEL =      210546.8804                   WEL =        1310.1600     RIV_CORR                         
                 DRN =           0.0000                   DRN =           0.0000     DRN_SYS1                         
                 RIV =      203992.6928                   RIV =        1305.9454     RIV_SYS1                         
                 RIV =           0.0000                   RIV =           0.0000     RIV_SYS2                         
                 RCH =      277415.0159                   RCH =          35.5040     RCH_MSW                          

            TOTAL IN =      867980.6873              TOTAL IN =        2903.1703

          OUT:                                     OUT:
          ----                                     ----
              STO-SS =      113606.0743                STO-SS =          37.0344     STORAGE                          
                 WEL =      220930.8442                   WEL =         676.4616     RIV_CORR                         
                 DRN =       56230.8429                   DRN =         226.2741     DRN_SYS1                         
                 RIV =      210590.6424                   RIV =         673.4419     RIV_SYS1                         
                 RIV =      151875.3888                   RIV =         614.4517     RIV_SYS2                         
                 RCH =      114750.1059                   RCH =         675.6199     RCH_MSW                          

           TOTAL OUT =      867983.8985             TOTAL OUT =        2903.2836

            IN - OUT =          -3.2112              IN - OUT =          -0.1133

 PERCENT DISCREPANCY =          -0.00     PERCENT DISCREPANCY =          -0.00




         TIME SUMMARY AT END OF TIME STEP    1 IN STRESS PERIOD  223
                    SECONDS     MINUTES      HOURS       DAYS        YEARS
                    -----------------------------------------------------------
   TIME STEP LENGTH  86400.      1440.0      24.000      1.0000     2.73785E-03
 STRESS PERIOD TIME  86400.      1440.0      24.000      1.0000     2.73785E-03
         TOTAL TIME 1.92672E+07 3.21120E+05  5352.0      223.00     0.61054    


end timestep


start timestep kper="224" kstp="1" mode="normal"

 #Stressperiod Save Options

 BEGIN READING OUTPUT CONTROL FOR STRESS PERIOD 224
      ALL TIME STEPS WILL BE SAVED
      ALL TIME STEPS WILL BE SAVED

 END READING OUTPUT CONTROL FOR STRESS PERIOD 224


 PROCESSING STORAGE PERIOD DATA
 END PROCESSING STORAGE PERIOD DATA


 STRESS PERIOD 224 IS TRANSIENT


 REUSING WELS FROM LAST STRESS PERIOD

 REUSING DRNS FROM LAST STRESS PERIOD

 REUSING RIVS FROM LAST STRESS PERIOD

 REUSING RIVS FROM LAST STRESS PERIOD

 REUSING RCHS FROM LAST STRESS PERIOD
 UBDSV06 SAVING              DRN IN MODEL GWF_1            PACKAGE GWF_1           CONNECTED TO MODEL GWF_1            PACKAGE DRN_SYS1         ON UNIT   1019 AT TIME STEP      1, STRESS PERIOD    224
 UBDSV06 SAVING              RIV IN MODEL GWF_1            PACKAGE GWF_1           CONNECTED TO MODEL GWF_1            PACKAGE RIV_SYS1         ON UNIT   1019 AT TIME STEP      1, STRESS PERIOD    224
 UBDSV06 SAVING              RIV IN MODEL GWF_1            PACKAGE GWF_1           CONNECTED TO MODEL GWF_1            PACKAGE RIV_SYS2         ON UNIT   1019 AT TIME STEP      1, STRESS PERIOD    224

 HEAD WILL BE SAVED ON UNIT 1018 AT END OF TIME STEP    1, STRESS PERIOD  224


  VOLUME BUDGET FOR ENTIRE MODEL AT END OF TIME STEP    1, STRESS PERIOD 224
  ---------------------------------------------------------------------------------------------------

     CUMULATIVE VOLUME      L**3       RATES FOR THIS TIME STEP      L**3/T          PACKAGE NAME    
     ------------------                 ------------------------                     ----------------

           IN:                                      IN:
           ---                                      ---
              STO-SS =      176197.4395                STO-SS =         171.3412     STORAGE                          
                 WEL =      211852.8258                   WEL =        1305.9454     RIV_CORR                         
                 DRN =           0.0000                   DRN =           0.0000     DRN_SYS1                         
                 RIV =      205143.2813                   RIV =        1150.5885     RIV_SYS1                         
                 RIV =           0.0000                   RIV =           0.0000     RIV_SYS2                         
                 RCH =      277647.3773                   RCH =         232.3615     RCH_MSW                          

            TOTAL IN =      870840.9240              TOTAL IN =        2860.2367

          OUT:                                     OUT:
          ----                                     ----
              STO-SS =      113782.0835                STO-SS =         176.0092     STORAGE                          
                 WEL =      221604.2861                   WEL =         673.4419     RIV_CORR                         
                 DRN =       56456.7143                   DRN =         225.8714     DRN_SYS1                         
                 RIV =      211269.9184                   RIV =         679.2760     RIV_SYS1                         
                 RIV =      152488.9230                   RIV =         613.5343     RIV_SYS2                         
                 RCH =      115242.2041                   RCH =         492.0981     RCH_MSW                          

           TOTAL OUT =      870844.1293             TOTAL OUT =        2860.2309

            IN - OUT =          -3.2054              IN - OUT =       5.8096E-03

 PERCENT DISCREPANCY =          -0.00     PERCENT DISCREPANCY =           0.00




         TIME SUMMARY AT END OF TIME STEP    1 IN STRESS PERIOD  224
                    SECONDS     MINUTES      HOURS       DAYS        YEARS
                    -----------------------------------------------------------
   TIME STEP LENGTH  86400.      1440.0      24.000      1.0000     2.73785E-03
 STRESS PERIOD TIME  86400.      1440.0      24.000      1.0000     2.73785E-03
         TOTAL TIME 1.93536E+07 3.22560E+05  5376.0      224.00     0.61328    


end timestep


start timestep kper="225" kstp="1" mode="normal"

 #Stressperiod Save Options

 BEGIN READING OUTPUT CONTROL FOR STRESS PERIOD 225
      ALL TIME STEPS WILL BE SAVED
      ALL TIME STEPS WILL BE SAVED

 END READING OUTPUT CONTROL FOR STRESS PERIOD 225


 PROCESSING STORAGE PERIOD DATA
 END PROCESSING STORAGE PERIOD DATA


 STRESS PERIOD 225 IS TRANSIENT


 REUSING WELS FROM LAST STRESS PERIOD

 REUSING DRNS FROM LAST STRESS PERIOD

 REUSING RIVS FROM LAST STRESS PERIOD

 REUSING RIVS FROM LAST STRESS PERIOD

 REUSING RCHS FROM LAST STRESS PERIOD
 UBDSV06 SAVING              DRN IN MODEL GWF_1            PACKAGE GWF_1           CONNECTED TO MODEL GWF_1            PACKAGE DRN_SYS1         ON UNIT   1019 AT TIME STEP      1, STRESS PERIOD    225
 UBDSV06 SAVING              RIV IN MODEL GWF_1            PACKAGE GWF_1           CONNECTED TO MODEL GWF_1            PACKAGE RIV_SYS1         ON UNIT   1019 AT TIME STEP      1, STRESS PERIOD    225
 UBDSV06 SAVING              RIV IN MODEL GWF_1            PACKAGE GWF_1           CONNECTED TO MODEL GWF_1            PACKAGE RIV_SYS2         ON UNIT   1019 AT TIME STEP      1, STRESS PERIOD    225

 HEAD WILL BE SAVED ON UNIT 1018 AT END OF TIME STEP    1, STRESS PERIOD  225


  VOLUME BUDGET FOR ENTIRE MODEL AT END OF TIME STEP    1, STRESS PERIOD 225
  ---------------------------------------------------------------------------------------------------

     CUMULATIVE VOLUME      L**3       RATES FOR THIS TIME STEP      L**3/T          PACKAGE NAME    
     ------------------                 ------------------------                     ----------------

           IN:                                      IN:
           ---                                      ---
              STO-SS =      176625.2898                STO-SS =         427.8503     STORAGE                          
                 WEL =      213003.4144                   WEL =        1150.5885     RIV_CORR                         
                 DRN =           0.0000                   DRN =           0.0000     DRN_SYS1                         
                 RIV =      206596.2477                   RIV =        1452.9663     RIV_SYS1                         
                 RIV =           0.0000                   RIV =           0.0000     RIV_SYS2                         
                 RCH =      277663.3634                   RCH =          15.9861     RCH_MSW                          

            TOTAL IN =      873888.3153              TOTAL IN =        3047.3913

          OUT:                                     OUT:
          ----                                     ----
              STO-SS =      113782.7381                STO-SS =           0.6546     STORAGE                          
                 WEL =      222283.5620                   WEL =         679.2760     RIV_CORR                         
                 DRN =       56682.1814                   DRN =         225.4671     DRN_SYS1                         
                 RIV =      211938.2626                   RIV =         668.3443     RIV_SYS1                         
                 RIV =      153101.4341                   RIV =         612.5111     RIV_SYS2                         
                 RCH =      116103.3954                   RCH =         861.1914     RCH_MSW                          

           TOTAL OUT =      873891.5737             TOTAL OUT =        3047.4443

            IN - OUT =          -3.2584              IN - OUT =      -5.3044E-02

 PERCENT DISCREPANCY =          -0.00     PERCENT DISCREPANCY =          -0.00




         TIME SUMMARY AT END OF TIME STEP    1 IN STRESS PERIOD  225
                    SECONDS     MINUTES      HOURS       DAYS        YEARS
                    -----------------------------------------------------------
   TIME STEP LENGTH  86400.      1440.0      24.000      1.0000     2.73785E-03
 STRESS PERIOD TIME  86400.      1440.0      24.000      1.0000     2.73785E-03
         TOTAL TIME 1.94400E+07 3.24000E+05  5400.0      225.00     0.61602    


end timestep


start timestep kper="226" kstp="1" mode="normal"

 #Stressperiod Save Options

 BEGIN READING OUTPUT CONTROL FOR STRESS PERIOD 226
      ALL TIME STEPS WILL BE SAVED
      ALL TIME STEPS WILL BE SAVED

 END READING OUTPUT CONTROL FOR STRESS PERIOD 226


 PROCESSING STORAGE PERIOD DATA
 END PROCESSING STORAGE PERIOD DATA


 STRESS PERIOD 226 IS TRANSIENT


 REUSING WELS FROM LAST STRESS PERIOD

 REUSING DRNS FROM LAST STRESS PERIOD

 REUSING RIVS FROM LAST STRESS PERIOD

 REUSING RIVS FROM LAST STRESS PERIOD

 REUSING RCHS FROM LAST STRESS PERIOD
 UBDSV06 SAVING              DRN IN MODEL GWF_1            PACKAGE GWF_1           CONNECTED TO MODEL GWF_1            PACKAGE DRN_SYS1         ON UNIT   1019 AT TIME STEP      1, STRESS PERIOD    226
 UBDSV06 SAVING              RIV IN MODEL GWF_1            PACKAGE GWF_1           CONNECTED TO MODEL GWF_1            PACKAGE RIV_SYS1         ON UNIT   1019 AT TIME STEP      1, STRESS PERIOD    226
 UBDSV06 SAVING              RIV IN MODEL GWF_1            PACKAGE GWF_1           CONNECTED TO MODEL GWF_1            PACKAGE RIV_SYS2         ON UNIT   1019 AT TIME STEP      1, STRESS PERIOD    226

 HEAD WILL BE SAVED ON UNIT 1018 AT END OF TIME STEP    1, STRESS PERIOD  226


  VOLUME BUDGET FOR ENTIRE MODEL AT END OF TIME STEP    1, STRESS PERIOD 226
  ---------------------------------------------------------------------------------------------------

     CUMULATIVE VOLUME      L**3       RATES FOR THIS TIME STEP      L**3/T          PACKAGE NAME    
     ------------------                 ------------------------                     ----------------

           IN:                                      IN:
           ---                                      ---
              STO-SS =      176874.2932                STO-SS =         249.0034     STORAGE                          
                 WEL =      214456.3807                   WEL =        1452.9663     RIV_CORR                         
                 DRN =           0.0000                   DRN =           0.0000     DRN_SYS1                         
                 RIV =      207938.8947                   RIV =        1342.6471     RIV_SYS1                         
                 RIV =           0.0000                   RIV =           0.0000     RIV_SYS2                         
                 RCH =      277676.8471                   RCH =          13.4837     RCH_MSW                          

            TOTAL IN =      876946.4158              TOTAL IN =        3058.1005

          OUT:                                     OUT:
          ----                                     ----
              STO-SS =      113812.7483                STO-SS =          30.0103     STORAGE                          
                 WEL =      222951.9063                   WEL =         668.3443     RIV_CORR                         
                 DRN =       56907.2493                   DRN =         225.0679     DRN_SYS1                         
                 RIV =      212604.6164                   RIV =         666.3537     RIV_SYS1                         
                 RIV =      153712.9272                   RIV =         611.4931     RIV_SYS2                         
                 RCH =      116960.2274                   RCH =         856.8320     RCH_MSW                          

           TOTAL OUT =      876949.6749             TOTAL OUT =        3058.1012

            IN - OUT =          -3.2591              IN - OUT =      -6.8083E-04

 PERCENT DISCREPANCY =          -0.00     PERCENT DISCREPANCY =          -0.00




         TIME SUMMARY AT END OF TIME STEP    1 IN STRESS PERIOD  226
                    SECONDS     MINUTES      HOURS       DAYS        YEARS
                    -----------------------------------------------------------
   TIME STEP LENGTH  86400.      1440.0      24.000      1.0000     2.73785E-03
 STRESS PERIOD TIME  86400.      1440.0      24.000      1.0000     2.73785E-03
         TOTAL TIME 1.95264E+07 3.25440E+05  5424.0      226.00     0.61875    


end timestep


start timestep kper="227" kstp="1" mode="normal"

 #Stressperiod Save Options

 BEGIN READING OUTPUT CONTROL FOR STRESS PERIOD 227
      ALL TIME STEPS WILL BE SAVED
      ALL TIME STEPS WILL BE SAVED

 END READING OUTPUT CONTROL FOR STRESS PERIOD 227


 PROCESSING STORAGE PERIOD DATA
 END PROCESSING STORAGE PERIOD DATA


 STRESS PERIOD 227 IS TRANSIENT


 REUSING WELS FROM LAST STRESS PERIOD

 REUSING DRNS FROM LAST STRESS PERIOD

 REUSING RIVS FROM LAST STRESS PERIOD

 REUSING RIVS FROM LAST STRESS PERIOD

 REUSING RCHS FROM LAST STRESS PERIOD
 UBDSV06 SAVING              DRN IN MODEL GWF_1            PACKAGE GWF_1           CONNECTED TO MODEL GWF_1            PACKAGE DRN_SYS1         ON UNIT   1019 AT TIME STEP      1, STRESS PERIOD    227
 UBDSV06 SAVING              RIV IN MODEL GWF_1            PACKAGE GWF_1           CONNECTED TO MODEL GWF_1            PACKAGE RIV_SYS1         ON UNIT   1019 AT TIME STEP      1, STRESS PERIOD    227
 UBDSV06 SAVING              RIV IN MODEL GWF_1            PACKAGE GWF_1           CONNECTED TO MODEL GWF_1            PACKAGE RIV_SYS2         ON UNIT   1019 AT TIME STEP      1, STRESS PERIOD    227

 HEAD WILL BE SAVED ON UNIT 1018 AT END OF TIME STEP    1, STRESS PERIOD  227


  VOLUME BUDGET FOR ENTIRE MODEL AT END OF TIME STEP    1, STRESS PERIOD 227
  ---------------------------------------------------------------------------------------------------

     CUMULATIVE VOLUME      L**3       RATES FOR THIS TIME STEP      L**3/T          PACKAGE NAME    
     ------------------                 ------------------------                     ----------------

           IN:                                      IN:
           ---                                      ---
              STO-SS =      177142.4287                STO-SS =         268.1354     STORAGE                          
                 WEL =      215799.0278                   WEL =        1342.6471     RIV_CORR                         
                 DRN =           0.0000                   DRN =           0.0000     DRN_SYS1                         
                 RIV =      209320.4484                   RIV =        1381.5537     RIV_SYS1                         
                 RIV =           0.0000                   RIV =           0.0000     RIV_SYS2                         
                 RCH =      277688.1189                   RCH =          11.2718     RCH_MSW                          

            TOTAL IN =      879950.0238              TOTAL IN =        3003.6081

          OUT:                                     OUT:
          ----                                     ----
              STO-SS =      113812.7483                STO-SS =           0.0000     STORAGE                          
                 WEL =      223618.2600                   WEL =         666.3537     RIV_CORR                         
                 DRN =       57131.9197                   DRN =         224.6704     DRN_SYS1                         
                 RIV =      213268.8823                   RIV =         664.2659     RIV_SYS1                         
                 RIV =      154323.4130                   RIV =         610.4858     RIV_SYS2                         
                 RCH =      117798.0488                   RCH =         837.8214     RCH_MSW                          

           TOTAL OUT =      879953.2721             TOTAL OUT =        3003.5972

            IN - OUT =          -3.2482              IN - OUT =       1.0866E-02

 PERCENT DISCREPANCY =          -0.00     PERCENT DISCREPANCY =           0.00




         TIME SUMMARY AT END OF TIME STEP    1 IN STRESS PERIOD  227
                    SECONDS     MINUTES      HOURS       DAYS        YEARS
                    -----------------------------------------------------------
   TIME STEP LENGTH  86400.      1440.0      24.000      1.0000     2.73785E-03
 STRESS PERIOD TIME  86400.      1440.0      24.000      1.0000     2.73785E-03
         TOTAL TIME 1.96128E+07 3.26880E+05  5448.0      227.00     0.62149    


end timestep


start timestep kper="228" kstp="1" mode="normal"

 #Stressperiod Save Options

 BEGIN READING OUTPUT CONTROL FOR STRESS PERIOD 228
      ALL TIME STEPS WILL BE SAVED
      ALL TIME STEPS WILL BE SAVED

 END READING OUTPUT CONTROL FOR STRESS PERIOD 228


 PROCESSING STORAGE PERIOD DATA
 END PROCESSING STORAGE PERIOD DATA


 STRESS PERIOD 228 IS TRANSIENT


 REUSING WELS FROM LAST STRESS PERIOD

 REUSING DRNS FROM LAST STRESS PERIOD

 REUSING RIVS FROM LAST STRESS PERIOD

 REUSING RIVS FROM LAST STRESS PERIOD

 REUSING RCHS FROM LAST STRESS PERIOD
 UBDSV06 SAVING              DRN IN MODEL GWF_1            PACKAGE GWF_1           CONNECTED TO MODEL GWF_1            PACKAGE DRN_SYS1         ON UNIT   1019 AT TIME STEP      1, STRESS PERIOD    228
 UBDSV06 SAVING              RIV IN MODEL GWF_1            PACKAGE GWF_1           CONNECTED TO MODEL GWF_1            PACKAGE RIV_SYS1         ON UNIT   1019 AT TIME STEP      1, STRESS PERIOD    228
 UBDSV06 SAVING              RIV IN MODEL GWF_1            PACKAGE GWF_1           CONNECTED TO MODEL GWF_1            PACKAGE RIV_SYS2         ON UNIT   1019 AT TIME STEP      1, STRESS PERIOD    228

 HEAD WILL BE SAVED ON UNIT 1018 AT END OF TIME STEP    1, STRESS PERIOD  228


  VOLUME BUDGET FOR ENTIRE MODEL AT END OF TIME STEP    1, STRESS PERIOD 228
  ---------------------------------------------------------------------------------------------------

     CUMULATIVE VOLUME      L**3       RATES FOR THIS TIME STEP      L**3/T          PACKAGE NAME    
     ------------------                 ------------------------                     ----------------

           IN:                                      IN:
           ---                                      ---
              STO-SS =      177460.9664                STO-SS =         318.5378     STORAGE                          
                 WEL =      217180.5815                   WEL =        1381.5537     RIV_CORR                         
                 DRN =           0.0000                   DRN =           0.0000     DRN_SYS1                         
                 RIV =      210756.9383                   RIV =        1436.4899     RIV_SYS1                         
                 RIV =           0.0000                   RIV =           0.0000     RIV_SYS2                         
                 RCH =      277697.2489                   RCH =           9.1300     RCH_MSW                          

            TOTAL IN =      883095.7352              TOTAL IN =        3145.7113

          OUT:                                     OUT:
          ----                                     ----
              STO-SS =      113812.7483                STO-SS =           0.0000     STORAGE                          
                 WEL =      224282.5259                   WEL =         664.2659     RIV_CORR                         
                 DRN =       57356.1756                   DRN =         224.2560     DRN_SYS1                         
                 RIV =      213930.9194                   RIV =         662.0371     RIV_SYS1                         
                 RIV =      154932.8448                   RIV =         609.4317     RIV_SYS2                         
                 RCH =      118783.7801                   RCH =         985.7314     RCH_MSW                          

           TOTAL OUT =      883098.9942             TOTAL OUT =        3145.7221

            IN - OUT =          -3.2590              IN - OUT =      -1.0758E-02

 PERCENT DISCREPANCY =          -0.00     PERCENT DISCREPANCY =          -0.00




         TIME SUMMARY AT END OF TIME STEP    1 IN STRESS PERIOD  228
                    SECONDS     MINUTES      HOURS       DAYS        YEARS
                    -----------------------------------------------------------
   TIME STEP LENGTH  86400.      1440.0      24.000      1.0000     2.73785E-03
 STRESS PERIOD TIME  86400.      1440.0      24.000      1.0000     2.73785E-03
         TOTAL TIME 1.96992E+07 3.28320E+05  5472.0      228.00     0.62423    


end timestep


start timestep kper="229" kstp="1" mode="normal"

 #Stressperiod Save Options

 BEGIN READING OUTPUT CONTROL FOR STRESS PERIOD 229
      ALL TIME STEPS WILL BE SAVED
      ALL TIME STEPS WILL BE SAVED

 END READING OUTPUT CONTROL FOR STRESS PERIOD 229


 PROCESSING STORAGE PERIOD DATA
 END PROCESSING STORAGE PERIOD DATA


 STRESS PERIOD 229 IS TRANSIENT


 REUSING WELS FROM LAST STRESS PERIOD

 REUSING DRNS FROM LAST STRESS PERIOD

 REUSING RIVS FROM LAST STRESS PERIOD

 REUSING RIVS FROM LAST STRESS PERIOD

 REUSING RCHS FROM LAST STRESS PERIOD
 UBDSV06 SAVING              DRN IN MODEL GWF_1            PACKAGE GWF_1           CONNECTED TO MODEL GWF_1            PACKAGE DRN_SYS1         ON UNIT   1019 AT TIME STEP      1, STRESS PERIOD    229
 UBDSV06 SAVING              RIV IN MODEL GWF_1            PACKAGE GWF_1           CONNECTED TO MODEL GWF_1            PACKAGE RIV_SYS1         ON UNIT   1019 AT TIME STEP      1, STRESS PERIOD    229
 UBDSV06 SAVING              RIV IN MODEL GWF_1            PACKAGE GWF_1           CONNECTED TO MODEL GWF_1            PACKAGE RIV_SYS2         ON UNIT   1019 AT TIME STEP      1, STRESS PERIOD    229

 HEAD WILL BE SAVED ON UNIT 1018 AT END OF TIME STEP    1, STRESS PERIOD  229


  VOLUME BUDGET FOR ENTIRE MODEL AT END OF TIME STEP    1, STRESS PERIOD 229
  ---------------------------------------------------------------------------------------------------

     CUMULATIVE VOLUME      L**3       RATES FOR THIS TIME STEP      L**3/T          PACKAGE NAME    
     ------------------                 ------------------------                     ----------------

           IN:                                      IN:
           ---                                      ---
              STO-SS =      177527.9495                STO-SS =          66.9831     STORAGE                          
                 WEL =      218617.0713                   WEL =        1436.4899     RIV_CORR                         
                 DRN =           0.0000                   DRN =           0.0000     DRN_SYS1                         
                 RIV =      211399.2196                   RIV =         642.2813     RIV_SYS1                         
                 RIV =           0.0000                   RIV =           0.0000     RIV_SYS2                         
                 RCH =      280212.5866                   RCH =        2515.3377     RCH_MSW                          

            TOTAL IN =      887756.8271              TOTAL IN =        4661.0919

          OUT:                                     OUT:
          ----                                     ----
              STO-SS =      115482.5003                STO-SS =        1669.7520     STORAGE                          
                 WEL =      224944.5630                   WEL =         662.0371     RIV_CORR                         
                 DRN =       57580.7723                   DRN =         224.5967     DRN_SYS1                         
                 RIV =      215126.9653                   RIV =        1196.0459     RIV_SYS1                         
                 RIV =      155543.3970                   RIV =         610.5523     RIV_SYS2                         
                 RCH =      119081.8675                   RCH =         298.0874     RCH_MSW                          

           TOTAL OUT =      887760.0654             TOTAL OUT =        4661.0713

            IN - OUT =          -3.2383              IN - OUT =       2.0649E-02

 PERCENT DISCREPANCY =          -0.00     PERCENT DISCREPANCY =           0.00




         TIME SUMMARY AT END OF TIME STEP    1 IN STRESS PERIOD  229
                    SECONDS     MINUTES      HOURS       DAYS        YEARS
                    -----------------------------------------------------------
   TIME STEP LENGTH  86400.      1440.0      24.000      1.0000     2.73785E-03
 STRESS PERIOD TIME  86400.      1440.0      24.000      1.0000     2.73785E-03
         TOTAL TIME 1.97856E+07 3.29760E+05  5496.0      229.00     0.62697    


end timestep


start timestep kper="230" kstp="1" mode="normal"

 #Stressperiod Save Options

 BEGIN READING OUTPUT CONTROL FOR STRESS PERIOD 230
      ALL TIME STEPS WILL BE SAVED
      ALL TIME STEPS WILL BE SAVED

 END READING OUTPUT CONTROL FOR STRESS PERIOD 230


 PROCESSING STORAGE PERIOD DATA
 END PROCESSING STORAGE PERIOD DATA


 STRESS PERIOD 230 IS TRANSIENT


 REUSING WELS FROM LAST STRESS PERIOD

 REUSING DRNS FROM LAST STRESS PERIOD

 REUSING RIVS FROM LAST STRESS PERIOD

 REUSING RIVS FROM LAST STRESS PERIOD

 REUSING RCHS FROM LAST STRESS PERIOD
 UBDSV06 SAVING              DRN IN MODEL GWF_1            PACKAGE GWF_1           CONNECTED TO MODEL GWF_1            PACKAGE DRN_SYS1         ON UNIT   1019 AT TIME STEP      1, STRESS PERIOD    230
 UBDSV06 SAVING              RIV IN MODEL GWF_1            PACKAGE GWF_1           CONNECTED TO MODEL GWF_1            PACKAGE RIV_SYS1         ON UNIT   1019 AT TIME STEP      1, STRESS PERIOD    230
 UBDSV06 SAVING              RIV IN MODEL GWF_1            PACKAGE GWF_1           CONNECTED TO MODEL GWF_1            PACKAGE RIV_SYS2         ON UNIT   1019 AT TIME STEP      1, STRESS PERIOD    230

 HEAD WILL BE SAVED ON UNIT 1018 AT END OF TIME STEP    1, STRESS PERIOD  230


  VOLUME BUDGET FOR ENTIRE MODEL AT END OF TIME STEP    1, STRESS PERIOD 230
  ---------------------------------------------------------------------------------------------------

     CUMULATIVE VOLUME      L**3       RATES FOR THIS TIME STEP      L**3/T          PACKAGE NAME    
     ------------------                 ------------------------                     ----------------

           IN:                                      IN:
           ---                                      ---
              STO-SS =      177756.5230                STO-SS =         228.5735     STORAGE                          
                 WEL =      219259.3526                   WEL =         642.2813     RIV_CORR                         
                 DRN =           0.0000                   DRN =           0.0000     DRN_SYS1                         
                 RIV =      212171.4249                   RIV =         772.2054     RIV_SYS1                         
                 RIV =           0.0000                   RIV =           0.0000     RIV_SYS2                         
                 RCH =      282772.2126                   RCH =        2559.6260     RCH_MSW                          

            TOTAL IN =      891959.5132              TOTAL IN =        4202.6861

          OUT:                                     OUT:
          ----                                     ----
              STO-SS =      116696.0881                STO-SS =        1213.5878     STORAGE                          
                 WEL =      226140.6089                   WEL =        1196.0459     RIV_CORR                         
                 DRN =       57806.9584                   DRN =         226.1861     DRN_SYS1                         
                 RIV =      215915.5345                   RIV =         788.5693     RIV_SYS1                         
                 RIV =      156157.8525                   RIV =         614.4555     RIV_SYS2                         
                 RCH =      119245.6358                   RCH =         163.7683     RCH_MSW                          

           TOTAL OUT =      891962.6784             TOTAL OUT =        4202.6129

            IN - OUT =          -3.1652              IN - OUT =       7.3147E-02

 PERCENT DISCREPANCY =          -0.00     PERCENT DISCREPANCY =           0.00




         TIME SUMMARY AT END OF TIME STEP    1 IN STRESS PERIOD  230
                    SECONDS     MINUTES      HOURS       DAYS        YEARS
                    -----------------------------------------------------------
   TIME STEP LENGTH  86400.      1440.0      24.000      1.0000     2.73785E-03
 STRESS PERIOD TIME  86400.      1440.0      24.000      1.0000     2.73785E-03
         TOTAL TIME 1.98720E+07 3.31200E+05  5520.0      230.00     0.62971    


end timestep


start timestep kper="231" kstp="1" mode="normal"

 #Stressperiod Save Options

 BEGIN READING OUTPUT CONTROL FOR STRESS PERIOD 231
      ALL TIME STEPS WILL BE SAVED
      ALL TIME STEPS WILL BE SAVED

 END READING OUTPUT CONTROL FOR STRESS PERIOD 231


 PROCESSING STORAGE PERIOD DATA
 END PROCESSING STORAGE PERIOD DATA


 STRESS PERIOD 231 IS TRANSIENT


 REUSING WELS FROM LAST STRESS PERIOD

 REUSING DRNS FROM LAST STRESS PERIOD

 REUSING RIVS FROM LAST STRESS PERIOD

 REUSING RIVS FROM LAST STRESS PERIOD

 REUSING RCHS FROM LAST STRESS PERIOD
 UBDSV06 SAVING              DRN IN MODEL GWF_1            PACKAGE GWF_1           CONNECTED TO MODEL GWF_1            PACKAGE DRN_SYS1         ON UNIT   1019 AT TIME STEP      1, STRESS PERIOD    231
 UBDSV06 SAVING              RIV IN MODEL GWF_1            PACKAGE GWF_1           CONNECTED TO MODEL GWF_1            PACKAGE RIV_SYS1         ON UNIT   1019 AT TIME STEP      1, STRESS PERIOD    231
 UBDSV06 SAVING              RIV IN MODEL GWF_1            PACKAGE GWF_1           CONNECTED TO MODEL GWF_1            PACKAGE RIV_SYS2         ON UNIT   1019 AT TIME STEP      1, STRESS PERIOD    231

 HEAD WILL BE SAVED ON UNIT 1018 AT END OF TIME STEP    1, STRESS PERIOD  231


  VOLUME BUDGET FOR ENTIRE MODEL AT END OF TIME STEP    1, STRESS PERIOD 231
  ---------------------------------------------------------------------------------------------------

     CUMULATIVE VOLUME      L**3       RATES FOR THIS TIME STEP      L**3/T          PACKAGE NAME    
     ------------------                 ------------------------                     ----------------

           IN:                                      IN:
           ---                                      ---
              STO-SS =      178218.2372                STO-SS =         461.7142     STORAGE                          
                 WEL =      220031.5580                   WEL =         772.2054     RIV_CORR                         
                 DRN =           0.0000                   DRN =           0.0000     DRN_SYS1                         
                 RIV =      213171.2588                   RIV =         999.8338     RIV_SYS1                         
                 RIV =           0.0000                   RIV =           0.0000     RIV_SYS2                         
                 RCH =      283380.7521                   RCH =         608.5395     RCH_MSW                          

            TOTAL IN =      894801.8061              TOTAL IN =        2842.2929

          OUT:                                     OUT:
          ----                                     ----
              STO-SS =      117118.3338                STO-SS =         422.2457     STORAGE                          
                 WEL =      226929.1782                   WEL =         788.5693     RIV_CORR                         
                 DRN =       58034.5053                   DRN =         227.5469     DRN_SYS1                         
                 RIV =      216604.1720                   RIV =         688.6374     RIV_SYS1                         
                 RIV =      156775.4309                   RIV =         617.5783     RIV_SYS2                         
                 RCH =      119343.3669                   RCH =          97.7311     RCH_MSW                          

           TOTAL OUT =      894804.9870             TOTAL OUT =        2842.3087

            IN - OUT =          -3.1810              IN - OUT =      -1.5757E-02

 PERCENT DISCREPANCY =          -0.00     PERCENT DISCREPANCY =          -0.00




         TIME SUMMARY AT END OF TIME STEP    1 IN STRESS PERIOD  231
                    SECONDS     MINUTES      HOURS       DAYS        YEARS
                    -----------------------------------------------------------
   TIME STEP LENGTH  86400.      1440.0      24.000      1.0000     2.73785E-03
 STRESS PERIOD TIME  86400.      1440.0      24.000      1.0000     2.73785E-03
         TOTAL TIME 1.99584E+07 3.32640E+05  5544.0      231.00     0.63244    


end timestep


start timestep kper="232" kstp="1" mode="normal"

 #Stressperiod Save Options

 BEGIN READING OUTPUT CONTROL FOR STRESS PERIOD 232
      ALL TIME STEPS WILL BE SAVED
      ALL TIME STEPS WILL BE SAVED

 END READING OUTPUT CONTROL FOR STRESS PERIOD 232


 PROCESSING STORAGE PERIOD DATA
 END PROCESSING STORAGE PERIOD DATA


 STRESS PERIOD 232 IS TRANSIENT


 REUSING WELS FROM LAST STRESS PERIOD

 REUSING DRNS FROM LAST STRESS PERIOD

 REUSING RIVS FROM LAST STRESS PERIOD

 REUSING RIVS FROM LAST STRESS PERIOD

 REUSING RCHS FROM LAST STRESS PERIOD
 UBDSV06 SAVING              DRN IN MODEL GWF_1            PACKAGE GWF_1           CONNECTED TO MODEL GWF_1            PACKAGE DRN_SYS1         ON UNIT   1019 AT TIME STEP      1, STRESS PERIOD    232
 UBDSV06 SAVING              RIV IN MODEL GWF_1            PACKAGE GWF_1           CONNECTED TO MODEL GWF_1            PACKAGE RIV_SYS1         ON UNIT   1019 AT TIME STEP      1, STRESS PERIOD    232
 UBDSV06 SAVING              RIV IN MODEL GWF_1            PACKAGE GWF_1           CONNECTED TO MODEL GWF_1            PACKAGE RIV_SYS2         ON UNIT   1019 AT TIME STEP      1, STRESS PERIOD    232

 HEAD WILL BE SAVED ON UNIT 1018 AT END OF TIME STEP    1, STRESS PERIOD  232


  VOLUME BUDGET FOR ENTIRE MODEL AT END OF TIME STEP    1, STRESS PERIOD 232
  ---------------------------------------------------------------------------------------------------

     CUMULATIVE VOLUME      L**3       RATES FOR THIS TIME STEP      L**3/T          PACKAGE NAME    
     ------------------                 ------------------------                     ----------------

           IN:                                      IN:
           ---                                      ---
              STO-SS =      178520.2656                STO-SS =         302.0284     STORAGE                          
                 WEL =      221031.3918                   WEL =         999.8338     RIV_CORR                         
                 DRN =           0.0000                   DRN =           0.0000     DRN_SYS1                         
                 RIV =      214242.5343                   RIV =        1071.2755     RIV_SYS1                         
                 RIV =           0.0000                   RIV =           0.0000     RIV_SYS2                         
                 RCH =      283686.3631                   RCH =         305.6110     RCH_MSW                          

            TOTAL IN =      897480.5548              TOTAL IN =        2678.7487

          OUT:                                     OUT:
          ----                                     ----
              STO-SS =      117382.3089                STO-SS =         263.9751     STORAGE                          
                 WEL =      227617.8156                   WEL =         688.6374     RIV_CORR                         
                 DRN =       58262.8440                   DRN =         228.3388     DRN_SYS1                         
                 RIV =      217293.1488                   RIV =         688.9768     RIV_SYS1                         
                 RIV =      157394.7109                   RIV =         619.2800     RIV_SYS2                         
                 RCH =      119532.9265                   RCH =         189.5596     RCH_MSW                          

           TOTAL OUT =      897483.7547             TOTAL OUT =        2678.7677

            IN - OUT =          -3.1999              IN - OUT =      -1.8963E-02

 PERCENT DISCREPANCY =          -0.00     PERCENT DISCREPANCY =          -0.00




         TIME SUMMARY AT END OF TIME STEP    1 IN STRESS PERIOD  232
                    SECONDS     MINUTES      HOURS       DAYS        YEARS
                    -----------------------------------------------------------
   TIME STEP LENGTH  86400.      1440.0      24.000      1.0000     2.73785E-03
 STRESS PERIOD TIME  86400.      1440.0      24.000      1.0000     2.73785E-03
         TOTAL TIME 2.00448E+07 3.34080E+05  5568.0      232.00     0.63518    


end timestep


start timestep kper="233" kstp="1" mode="normal"

 #Stressperiod Save Options

 BEGIN READING OUTPUT CONTROL FOR STRESS PERIOD 233
      ALL TIME STEPS WILL BE SAVED
      ALL TIME STEPS WILL BE SAVED

 END READING OUTPUT CONTROL FOR STRESS PERIOD 233


 PROCESSING STORAGE PERIOD DATA
 END PROCESSING STORAGE PERIOD DATA


 STRESS PERIOD 233 IS TRANSIENT


 REUSING WELS FROM LAST STRESS PERIOD

 REUSING DRNS FROM LAST STRESS PERIOD

 REUSING RIVS FROM LAST STRESS PERIOD

 REUSING RIVS FROM LAST STRESS PERIOD

 REUSING RCHS FROM LAST STRESS PERIOD
 UBDSV06 SAVING              DRN IN MODEL GWF_1            PACKAGE GWF_1           CONNECTED TO MODEL GWF_1            PACKAGE DRN_SYS1         ON UNIT   1019 AT TIME STEP      1, STRESS PERIOD    233
 UBDSV06 SAVING              RIV IN MODEL GWF_1            PACKAGE GWF_1           CONNECTED TO MODEL GWF_1            PACKAGE RIV_SYS1         ON UNIT   1019 AT TIME STEP      1, STRESS PERIOD    233
 UBDSV06 SAVING              RIV IN MODEL GWF_1            PACKAGE GWF_1           CONNECTED TO MODEL GWF_1            PACKAGE RIV_SYS2         ON UNIT   1019 AT TIME STEP      1, STRESS PERIOD    233

 HEAD WILL BE SAVED ON UNIT 1018 AT END OF TIME STEP    1, STRESS PERIOD  233


  VOLUME BUDGET FOR ENTIRE MODEL AT END OF TIME STEP    1, STRESS PERIOD 233
  ---------------------------------------------------------------------------------------------------

     CUMULATIVE VOLUME      L**3       RATES FOR THIS TIME STEP      L**3/T          PACKAGE NAME    
     ------------------                 ------------------------                     ----------------

           IN:                                      IN:
           ---                                      ---
              STO-SS =      178903.2237                STO-SS =         382.9581     STORAGE                          
                 WEL =      222102.6673                   WEL =        1071.2755     RIV_CORR                         
                 DRN =           0.0000                   DRN =           0.0000     DRN_SYS1                         
                 RIV =      215440.9176                   RIV =        1198.3834     RIV_SYS1                         
                 RIV =           0.0000                   RIV =           0.0000     RIV_SYS2                         
                 RCH =      283803.8915                   RCH =         117.5283     RCH_MSW                          

            TOTAL IN =      900250.7001              TOTAL IN =        2770.1453

          OUT:                                     OUT:
          ----                                     ----
              STO-SS =      117515.0387                STO-SS =         132.7297     STORAGE                          
                 WEL =      228306.7924                   WEL =         688.9768     RIV_CORR                         
                 DRN =       58491.4158                   DRN =         228.5717     DRN_SYS1                         
                 RIV =      217978.1235                   RIV =         684.9747     RIV_SYS1                         
                 RIV =      158014.3244                   RIV =         619.6135     RIV_SYS2                         
                 RCH =      119948.2171                   RCH =         415.2906     RCH_MSW                          

           TOTAL OUT =      900253.9118             TOTAL OUT =        2770.1571

            IN - OUT =          -3.2117              IN - OUT =      -1.1769E-02

 PERCENT DISCREPANCY =          -0.00     PERCENT DISCREPANCY =          -0.00




         TIME SUMMARY AT END OF TIME STEP    1 IN STRESS PERIOD  233
                    SECONDS     MINUTES      HOURS       DAYS        YEARS
                    -----------------------------------------------------------
   TIME STEP LENGTH  86400.      1440.0      24.000      1.0000     2.73785E-03
 STRESS PERIOD TIME  86400.      1440.0      24.000      1.0000     2.73785E-03
         TOTAL TIME 2.01312E+07 3.35520E+05  5592.0      233.00     0.63792    


end timestep


start timestep kper="234" kstp="1" mode="normal"

 #Stressperiod Save Options

 BEGIN READING OUTPUT CONTROL FOR STRESS PERIOD 234
      ALL TIME STEPS WILL BE SAVED
      ALL TIME STEPS WILL BE SAVED

 END READING OUTPUT CONTROL FOR STRESS PERIOD 234


 PROCESSING STORAGE PERIOD DATA
 END PROCESSING STORAGE PERIOD DATA


 STRESS PERIOD 234 IS TRANSIENT


 REUSING WELS FROM LAST STRESS PERIOD

 REUSING DRNS FROM LAST STRESS PERIOD

 REUSING RIVS FROM LAST STRESS PERIOD

 REUSING RIVS FROM LAST STRESS PERIOD

 REUSING RCHS FROM LAST STRESS PERIOD
 UBDSV06 SAVING              DRN IN MODEL GWF_1            PACKAGE GWF_1           CONNECTED TO MODEL GWF_1            PACKAGE DRN_SYS1         ON UNIT   1019 AT TIME STEP      1, STRESS PERIOD    234
 UBDSV06 SAVING              RIV IN MODEL GWF_1            PACKAGE GWF_1           CONNECTED TO MODEL GWF_1            PACKAGE RIV_SYS1         ON UNIT   1019 AT TIME STEP      1, STRESS PERIOD    234
 UBDSV06 SAVING              RIV IN MODEL GWF_1            PACKAGE GWF_1           CONNECTED TO MODEL GWF_1            PACKAGE RIV_SYS2         ON UNIT   1019 AT TIME STEP      1, STRESS PERIOD    234

 HEAD WILL BE SAVED ON UNIT 1018 AT END OF TIME STEP    1, STRESS PERIOD  234


  VOLUME BUDGET FOR ENTIRE MODEL AT END OF TIME STEP    1, STRESS PERIOD 234
  ---------------------------------------------------------------------------------------------------

     CUMULATIVE VOLUME      L**3       RATES FOR THIS TIME STEP      L**3/T          PACKAGE NAME    
     ------------------                 ------------------------                     ----------------

           IN:                                      IN:
           ---                                      ---
              STO-SS =      179194.2741                STO-SS =         291.0504     STORAGE                          
                 WEL =      223301.0507                   WEL =        1198.3834     RIV_CORR                         
                 DRN =           0.0000                   DRN =           0.0000     DRN_SYS1                         
                 RIV =      216660.8663                   RIV =        1219.9487     RIV_SYS1                         
                 RIV =           0.0000                   RIV =           0.0000     RIV_SYS2                         
                 RCH =      283854.0705                   RCH =          50.1791     RCH_MSW                          

            TOTAL IN =      903010.2616              TOTAL IN =        2759.5615

          OUT:                                     OUT:
          ----                                     ----
              STO-SS =      117585.3575                STO-SS =          70.3188     STORAGE                          
                 WEL =      228991.7671                   WEL =         684.9747     RIV_CORR                         
                 DRN =       58719.8753                   DRN =         228.4595     DRN_SYS1                         
                 RIV =      218661.6435                   RIV =         683.5200     RIV_SYS1                         
                 RIV =      158633.4573                   RIV =         619.1329     RIV_SYS2                         
                 RCH =      120421.3951                   RCH =         473.1780     RCH_MSW                          

           TOTAL OUT =      903013.4958             TOTAL OUT =        2759.5841

            IN - OUT =          -3.2342              IN - OUT =      -2.2558E-02

 PERCENT DISCREPANCY =          -0.00     PERCENT DISCREPANCY =          -0.00




         TIME SUMMARY AT END OF TIME STEP    1 IN STRESS PERIOD  234
                    SECONDS     MINUTES      HOURS       DAYS        YEARS
                    -----------------------------------------------------------
   TIME STEP LENGTH  86400.      1440.0      24.000      1.0000     2.73785E-03
 STRESS PERIOD TIME  86400.      1440.0      24.000      1.0000     2.73785E-03
         TOTAL TIME 2.02176E+07 3.36960E+05  5616.0      234.00     0.64066    


end timestep


start timestep kper="235" kstp="1" mode="normal"

 #Stressperiod Save Options

 BEGIN READING OUTPUT CONTROL FOR STRESS PERIOD 235
      ALL TIME STEPS WILL BE SAVED
      ALL TIME STEPS WILL BE SAVED

 END READING OUTPUT CONTROL FOR STRESS PERIOD 235


 PROCESSING STORAGE PERIOD DATA
 END PROCESSING STORAGE PERIOD DATA


 STRESS PERIOD 235 IS TRANSIENT


 REUSING WELS FROM LAST STRESS PERIOD

 REUSING DRNS FROM LAST STRESS PERIOD

 REUSING RIVS FROM LAST STRESS PERIOD

 REUSING RIVS FROM LAST STRESS PERIOD

 REUSING RCHS FROM LAST STRESS PERIOD
 UBDSV06 SAVING              DRN IN MODEL GWF_1            PACKAGE GWF_1           CONNECTED TO MODEL GWF_1            PACKAGE DRN_SYS1         ON UNIT   1019 AT TIME STEP      1, STRESS PERIOD    235
 UBDSV06 SAVING              RIV IN MODEL GWF_1            PACKAGE GWF_1           CONNECTED TO MODEL GWF_1            PACKAGE RIV_SYS1         ON UNIT   1019 AT TIME STEP      1, STRESS PERIOD    235
 UBDSV06 SAVING              RIV IN MODEL GWF_1            PACKAGE GWF_1           CONNECTED TO MODEL GWF_1            PACKAGE RIV_SYS2         ON UNIT   1019 AT TIME STEP      1, STRESS PERIOD    235

 HEAD WILL BE SAVED ON UNIT 1018 AT END OF TIME STEP    1, STRESS PERIOD  235


  VOLUME BUDGET FOR ENTIRE MODEL AT END OF TIME STEP    1, STRESS PERIOD 235
  ---------------------------------------------------------------------------------------------------

     CUMULATIVE VOLUME      L**3       RATES FOR THIS TIME STEP      L**3/T          PACKAGE NAME    
     ------------------                 ------------------------                     ----------------

           IN:                                      IN:
           ---                                      ---
              STO-SS =      179385.0546                STO-SS =         190.7805     STORAGE                          
                 WEL =      224520.9993                   WEL =        1219.9487     RIV_CORR                         
                 DRN =           0.0000                   DRN =           0.0000     DRN_SYS1                         
                 RIV =      217855.1780                   RIV =        1194.3117     RIV_SYS1                         
                 RIV =           0.0000                   RIV =           0.0000     RIV_SYS2                         
                 RCH =      283881.3478                   RCH =          27.2772     RCH_MSW                          

            TOTAL IN =      905642.5797              TOTAL IN =        2632.3181

          OUT:                                     OUT:
          ----                                     ----
              STO-SS =      117627.6701                STO-SS =          42.3126     STORAGE                          
                 WEL =      229675.2871                   WEL =         683.5200     RIV_CORR                         
                 DRN =       58948.0807                   DRN =         228.2053     DRN_SYS1                         
                 RIV =      219343.7931                   RIV =         682.1497     RIV_SYS1                         
                 RIV =      159251.8068                   RIV =         618.3495     RIV_SYS2                         
                 RCH =      120799.2307                   RCH =         377.8356     RCH_MSW                          

           TOTAL OUT =      905645.8685             TOTAL OUT =        2632.3727

            IN - OUT =          -3.2888              IN - OUT =      -5.4566E-02

 PERCENT DISCREPANCY =          -0.00     PERCENT DISCREPANCY =          -0.00




         TIME SUMMARY AT END OF TIME STEP    1 IN STRESS PERIOD  235
                    SECONDS     MINUTES      HOURS       DAYS        YEARS
                    -----------------------------------------------------------
   TIME STEP LENGTH  86400.      1440.0      24.000      1.0000     2.73785E-03
 STRESS PERIOD TIME  86400.      1440.0      24.000      1.0000     2.73785E-03
         TOTAL TIME 2.03040E+07 3.38400E+05  5640.0      235.00     0.64339    


end timestep


start timestep kper="236" kstp="1" mode="normal"

 #Stressperiod Save Options

 BEGIN READING OUTPUT CONTROL FOR STRESS PERIOD 236
      ALL TIME STEPS WILL BE SAVED
      ALL TIME STEPS WILL BE SAVED

 END READING OUTPUT CONTROL FOR STRESS PERIOD 236


 PROCESSING STORAGE PERIOD DATA
 END PROCESSING STORAGE PERIOD DATA


 STRESS PERIOD 236 IS TRANSIENT


 REUSING WELS FROM LAST STRESS PERIOD

 REUSING DRNS FROM LAST STRESS PERIOD

 REUSING RIVS FROM LAST STRESS PERIOD

 REUSING RIVS FROM LAST STRESS PERIOD

 REUSING RCHS FROM LAST STRESS PERIOD
 UBDSV06 SAVING              DRN IN MODEL GWF_1            PACKAGE GWF_1           CONNECTED TO MODEL GWF_1            PACKAGE DRN_SYS1         ON UNIT   1019 AT TIME STEP      1, STRESS PERIOD    236
 UBDSV06 SAVING              RIV IN MODEL GWF_1            PACKAGE GWF_1           CONNECTED TO MODEL GWF_1            PACKAGE RIV_SYS1         ON UNIT   1019 AT TIME STEP      1, STRESS PERIOD    236
 UBDSV06 SAVING              RIV IN MODEL GWF_1            PACKAGE GWF_1           CONNECTED TO MODEL GWF_1            PACKAGE RIV_SYS2         ON UNIT   1019 AT TIME STEP      1, STRESS PERIOD    236

 HEAD WILL BE SAVED ON UNIT 1018 AT END OF TIME STEP    1, STRESS PERIOD  236


  VOLUME BUDGET FOR ENTIRE MODEL AT END OF TIME STEP    1, STRESS PERIOD 236
  ---------------------------------------------------------------------------------------------------

     CUMULATIVE VOLUME      L**3       RATES FOR THIS TIME STEP      L**3/T          PACKAGE NAME    
     ------------------                 ------------------------                     ----------------

           IN:                                      IN:
           ---                                      ---
              STO-SS =      179473.0283                STO-SS =          87.9737     STORAGE                          
                 WEL =      225715.3111                   WEL =        1194.3117     RIV_CORR                         
                 DRN =           0.0000                   DRN =           0.0000     DRN_SYS1                         
                 RIV =      218982.2065                   RIV =        1127.0285     RIV_SYS1                         
                 RIV =           0.0000                   RIV =           0.0000     RIV_SYS2                         
                 RCH =      283949.7428                   RCH =          68.3951     RCH_MSW                          

            TOTAL IN =      908120.2887              TOTAL IN =        2477.7090

          OUT:                                     OUT:
          ----                                     ----
              STO-SS =      117703.5843                STO-SS =          75.9142     STORAGE                          
                 WEL =      230357.4368                   WEL =         682.1497     RIV_CORR                         
                 DRN =       59176.0504                   DRN =         227.9697     DRN_SYS1                         
                 RIV =      220025.3819                   RIV =         681.5888     RIV_SYS1                         
                 RIV =      159869.4933                   RIV =         617.6865     RIV_SYS2                         
                 RCH =      120991.6370                   RCH =         192.4063     RCH_MSW                          

           TOTAL OUT =      908123.5836             TOTAL OUT =        2477.7151

            IN - OUT =          -3.2949              IN - OUT =      -6.1340E-03

 PERCENT DISCREPANCY =          -0.00     PERCENT DISCREPANCY =          -0.00




         TIME SUMMARY AT END OF TIME STEP    1 IN STRESS PERIOD  236
                    SECONDS     MINUTES      HOURS       DAYS        YEARS
                    -----------------------------------------------------------
   TIME STEP LENGTH  86400.      1440.0      24.000      1.0000     2.73785E-03
 STRESS PERIOD TIME  86400.      1440.0      24.000      1.0000     2.73785E-03
         TOTAL TIME 2.03904E+07 3.39840E+05  5664.0      236.00     0.64613    


end timestep


start timestep kper="237" kstp="1" mode="normal"

 #Stressperiod Save Options

 BEGIN READING OUTPUT CONTROL FOR STRESS PERIOD 237
      ALL TIME STEPS WILL BE SAVED
      ALL TIME STEPS WILL BE SAVED

 END READING OUTPUT CONTROL FOR STRESS PERIOD 237


 PROCESSING STORAGE PERIOD DATA
 END PROCESSING STORAGE PERIOD DATA


 STRESS PERIOD 237 IS TRANSIENT


 REUSING WELS FROM LAST STRESS PERIOD

 REUSING DRNS FROM LAST STRESS PERIOD

 REUSING RIVS FROM LAST STRESS PERIOD

 REUSING RIVS FROM LAST STRESS PERIOD

 REUSING RCHS FROM LAST STRESS PERIOD
 UBDSV06 SAVING              DRN IN MODEL GWF_1            PACKAGE GWF_1           CONNECTED TO MODEL GWF_1            PACKAGE DRN_SYS1         ON UNIT   1019 AT TIME STEP      1, STRESS PERIOD    237
 UBDSV06 SAVING              RIV IN MODEL GWF_1            PACKAGE GWF_1           CONNECTED TO MODEL GWF_1            PACKAGE RIV_SYS1         ON UNIT   1019 AT TIME STEP      1, STRESS PERIOD    237
 UBDSV06 SAVING              RIV IN MODEL GWF_1            PACKAGE GWF_1           CONNECTED TO MODEL GWF_1            PACKAGE RIV_SYS2         ON UNIT   1019 AT TIME STEP      1, STRESS PERIOD    237

 HEAD WILL BE SAVED ON UNIT 1018 AT END OF TIME STEP    1, STRESS PERIOD  237


  VOLUME BUDGET FOR ENTIRE MODEL AT END OF TIME STEP    1, STRESS PERIOD 237
  ---------------------------------------------------------------------------------------------------

     CUMULATIVE VOLUME      L**3       RATES FOR THIS TIME STEP      L**3/T          PACKAGE NAME    
     ------------------                 ------------------------                     ----------------

           IN:                                      IN:
           ---                                      ---
              STO-SS =      179682.3589                STO-SS =         209.3307     STORAGE                          
                 WEL =      226842.3396                   WEL =        1127.0285     RIV_CORR                         
                 DRN =           0.0000                   DRN =           0.0000     DRN_SYS1                         
                 RIV =      220236.0283                   RIV =        1253.8218     RIV_SYS1                         
                 RIV =           0.0000                   RIV =           0.0000     RIV_SYS2                         
                 RCH =      283971.1297                   RCH =          21.3869     RCH_MSW                          

            TOTAL IN =      910731.8565              TOTAL IN =        2611.5678

          OUT:                                     OUT:
          ----                                     ----
              STO-SS =      117709.9163                STO-SS =           6.3320     STORAGE                          
                 WEL =      231039.0256                   WEL =         681.5888     RIV_CORR                         
                 DRN =       59403.7603                   DRN =         227.7099     DRN_SYS1                         
                 RIV =      220705.2158                   RIV =         679.8339     RIV_SYS1                         
                 RIV =      160486.4572                   RIV =         616.9639     RIV_SYS2                         
                 RCH =      121390.7791                   RCH =         399.1421     RCH_MSW                          

           TOTAL OUT =      910735.1542             TOTAL OUT =        2611.5706

            IN - OUT =          -3.2977              IN - OUT =      -2.7813E-03

 PERCENT DISCREPANCY =          -0.00     PERCENT DISCREPANCY =          -0.00




         TIME SUMMARY AT END OF TIME STEP    1 IN STRESS PERIOD  237
                    SECONDS     MINUTES      HOURS       DAYS        YEARS
                    -----------------------------------------------------------
   TIME STEP LENGTH  86400.      1440.0      24.000      1.0000     2.73785E-03
 STRESS PERIOD TIME  86400.      1440.0      24.000      1.0000     2.73785E-03
         TOTAL TIME 2.04768E+07 3.41280E+05  5688.0      237.00     0.64887    


end timestep


start timestep kper="238" kstp="1" mode="normal"

 #Stressperiod Save Options

 BEGIN READING OUTPUT CONTROL FOR STRESS PERIOD 238
      ALL TIME STEPS WILL BE SAVED
      ALL TIME STEPS WILL BE SAVED

 END READING OUTPUT CONTROL FOR STRESS PERIOD 238


 PROCESSING STORAGE PERIOD DATA
 END PROCESSING STORAGE PERIOD DATA


 STRESS PERIOD 238 IS TRANSIENT


 REUSING WELS FROM LAST STRESS PERIOD

 REUSING DRNS FROM LAST STRESS PERIOD

 REUSING RIVS FROM LAST STRESS PERIOD

 REUSING RIVS FROM LAST STRESS PERIOD

 REUSING RCHS FROM LAST STRESS PERIOD
 UBDSV06 SAVING              DRN IN MODEL GWF_1            PACKAGE GWF_1           CONNECTED TO MODEL GWF_1            PACKAGE DRN_SYS1         ON UNIT   1019 AT TIME STEP      1, STRESS PERIOD    238
 UBDSV06 SAVING              RIV IN MODEL GWF_1            PACKAGE GWF_1           CONNECTED TO MODEL GWF_1            PACKAGE RIV_SYS1         ON UNIT   1019 AT TIME STEP      1, STRESS PERIOD    238
 UBDSV06 SAVING              RIV IN MODEL GWF_1            PACKAGE GWF_1           CONNECTED TO MODEL GWF_1            PACKAGE RIV_SYS2         ON UNIT   1019 AT TIME STEP      1, STRESS PERIOD    238

 HEAD WILL BE SAVED ON UNIT 1018 AT END OF TIME STEP    1, STRESS PERIOD  238


  VOLUME BUDGET FOR ENTIRE MODEL AT END OF TIME STEP    1, STRESS PERIOD 238
  ---------------------------------------------------------------------------------------------------

     CUMULATIVE VOLUME      L**3       RATES FOR THIS TIME STEP      L**3/T          PACKAGE NAME    
     ------------------                 ------------------------                     ----------------

           IN:                                      IN:
           ---                                      ---
              STO-SS =      179777.8679                STO-SS =          95.5090     STORAGE                          
                 WEL =      228096.1613                   WEL =        1253.8218     RIV_CORR                         
                 DRN =           0.0000                   DRN =           0.0000     DRN_SYS1                         
                 RIV =      221403.6246                   RIV =        1167.5963     RIV_SYS1                         
                 RIV =           0.0000                   RIV =           0.0000     RIV_SYS2                         
                 RCH =      283990.1637                   RCH =          19.0339     RCH_MSW                          

            TOTAL IN =      913267.8175              TOTAL IN =        2535.9610

          OUT:                                     OUT:
          ----                                     ----
              STO-SS =      117747.6954                STO-SS =          37.7790     STORAGE                          
                 WEL =      231718.8594                   WEL =         679.8339     RIV_CORR                         
                 DRN =       59631.2362                   DRN =         227.4759     DRN_SYS1                         
                 RIV =      221384.2680                   RIV =         679.0522     RIV_SYS1                         
                 RIV =      161102.7838                   RIV =         616.3267     RIV_SYS2                         
                 RCH =      121686.2741                   RCH =         295.4950     RCH_MSW                          

           TOTAL OUT =      913271.1169             TOTAL OUT =        2535.9627

            IN - OUT =          -3.2993              IN - OUT =      -1.6240E-03

 PERCENT DISCREPANCY =          -0.00     PERCENT DISCREPANCY =          -0.00




         TIME SUMMARY AT END OF TIME STEP    1 IN STRESS PERIOD  238
                    SECONDS     MINUTES      HOURS       DAYS        YEARS
                    -----------------------------------------------------------
   TIME STEP LENGTH  86400.      1440.0      24.000      1.0000     2.73785E-03
 STRESS PERIOD TIME  86400.      1440.0      24.000      1.0000     2.73785E-03
         TOTAL TIME 2.05632E+07 3.42720E+05  5712.0      238.00     0.65161    


end timestep


start timestep kper="239" kstp="1" mode="normal"

 #Stressperiod Save Options

 BEGIN READING OUTPUT CONTROL FOR STRESS PERIOD 239
      ALL TIME STEPS WILL BE SAVED
      ALL TIME STEPS WILL BE SAVED

 END READING OUTPUT CONTROL FOR STRESS PERIOD 239


 PROCESSING STORAGE PERIOD DATA
 END PROCESSING STORAGE PERIOD DATA


 STRESS PERIOD 239 IS TRANSIENT


 REUSING WELS FROM LAST STRESS PERIOD

 REUSING DRNS FROM LAST STRESS PERIOD

 REUSING RIVS FROM LAST STRESS PERIOD

 REUSING RIVS FROM LAST STRESS PERIOD

 REUSING RCHS FROM LAST STRESS PERIOD
 UBDSV06 SAVING              DRN IN MODEL GWF_1            PACKAGE GWF_1           CONNECTED TO MODEL GWF_1            PACKAGE DRN_SYS1         ON UNIT   1019 AT TIME STEP      1, STRESS PERIOD    239
 UBDSV06 SAVING              RIV IN MODEL GWF_1            PACKAGE GWF_1           CONNECTED TO MODEL GWF_1            PACKAGE RIV_SYS1         ON UNIT   1019 AT TIME STEP      1, STRESS PERIOD    239
 UBDSV06 SAVING              RIV IN MODEL GWF_1            PACKAGE GWF_1           CONNECTED TO MODEL GWF_1            PACKAGE RIV_SYS2         ON UNIT   1019 AT TIME STEP      1, STRESS PERIOD    239

 HEAD WILL BE SAVED ON UNIT 1018 AT END OF TIME STEP    1, STRESS PERIOD  239


  VOLUME BUDGET FOR ENTIRE MODEL AT END OF TIME STEP    1, STRESS PERIOD 239
  ---------------------------------------------------------------------------------------------------

     CUMULATIVE VOLUME      L**3       RATES FOR THIS TIME STEP      L**3/T          PACKAGE NAME    
     ------------------                 ------------------------                     ----------------

           IN:                                      IN:
           ---                                      ---
              STO-SS =      179836.9474                STO-SS =          59.0795     STORAGE                          
                 WEL =      229263.7577                   WEL =        1167.5963     RIV_CORR                         
                 DRN =           0.0000                   DRN =           0.0000     DRN_SYS1                         
                 RIV =      222545.0800                   RIV =        1141.4554     RIV_SYS1                         
                 RIV =           0.0000                   RIV =           0.0000     RIV_SYS2                         
                 RCH =      284062.8398                   RCH =          72.6762     RCH_MSW                          

            TOTAL IN =      915708.6250              TOTAL IN =        2440.8075

          OUT:                                     OUT:
          ----                                     ----
              STO-SS =      117805.5871                STO-SS =          57.8917     STORAGE                          
                 WEL =      232397.9116                   WEL =         679.0522     RIV_CORR                         
                 DRN =       59858.5469                   DRN =         227.3107     DRN_SYS1                         
                 RIV =      222062.9481                   RIV =         678.6802     RIV_SYS1                         
                 RIV =      161718.6772                   RIV =         615.8934     RIV_SYS2                         
                 RCH =      121868.2585                   RCH =         181.9844     RCH_MSW                          

           TOTAL OUT =      915711.9295             TOTAL OUT =        2440.8126

            IN - OUT =          -3.3045              IN - OUT =      -5.1414E-03

 PERCENT DISCREPANCY =          -0.00     PERCENT DISCREPANCY =          -0.00




         TIME SUMMARY AT END OF TIME STEP    1 IN STRESS PERIOD  239
                    SECONDS     MINUTES      HOURS       DAYS        YEARS
                    -----------------------------------------------------------
   TIME STEP LENGTH  86400.      1440.0      24.000      1.0000     2.73785E-03
 STRESS PERIOD TIME  86400.      1440.0      24.000      1.0000     2.73785E-03
         TOTAL TIME 2.06496E+07 3.44160E+05  5736.0      239.00     0.65435    


end timestep


start timestep kper="240" kstp="1" mode="normal"

 #Stressperiod Save Options

 BEGIN READING OUTPUT CONTROL FOR STRESS PERIOD 240
      ALL TIME STEPS WILL BE SAVED
      ALL TIME STEPS WILL BE SAVED

 END READING OUTPUT CONTROL FOR STRESS PERIOD 240


 PROCESSING STORAGE PERIOD DATA
 END PROCESSING STORAGE PERIOD DATA


 STRESS PERIOD 240 IS TRANSIENT


 REUSING WELS FROM LAST STRESS PERIOD

 REUSING DRNS FROM LAST STRESS PERIOD

 REUSING RIVS FROM LAST STRESS PERIOD

 REUSING RIVS FROM LAST STRESS PERIOD

 REUSING RCHS FROM LAST STRESS PERIOD
 UBDSV06 SAVING              DRN IN MODEL GWF_1            PACKAGE GWF_1           CONNECTED TO MODEL GWF_1            PACKAGE DRN_SYS1         ON UNIT   1019 AT TIME STEP      1, STRESS PERIOD    240
 UBDSV06 SAVING              RIV IN MODEL GWF_1            PACKAGE GWF_1           CONNECTED TO MODEL GWF_1            PACKAGE RIV_SYS1         ON UNIT   1019 AT TIME STEP      1, STRESS PERIOD    240
 UBDSV06 SAVING              RIV IN MODEL GWF_1            PACKAGE GWF_1           CONNECTED TO MODEL GWF_1            PACKAGE RIV_SYS2         ON UNIT   1019 AT TIME STEP      1, STRESS PERIOD    240

 HEAD WILL BE SAVED ON UNIT 1018 AT END OF TIME STEP    1, STRESS PERIOD  240


  VOLUME BUDGET FOR ENTIRE MODEL AT END OF TIME STEP    1, STRESS PERIOD 240
  ---------------------------------------------------------------------------------------------------

     CUMULATIVE VOLUME      L**3       RATES FOR THIS TIME STEP      L**3/T          PACKAGE NAME    
     ------------------                 ------------------------                     ----------------

           IN:                                      IN:
           ---                                      ---
              STO-SS =      180084.1492                STO-SS =         247.2017     STORAGE                          
                 WEL =      230405.2131                   WEL =        1141.4554     RIV_CORR                         
                 DRN =           0.0000                   DRN =           0.0000     DRN_SYS1                         
                 RIV =      223840.5790                   RIV =        1295.4990     RIV_SYS1                         
                 RIV =           0.0000                   RIV =           0.0000     RIV_SYS2                         
                 RCH =      284077.3805                   RCH =          14.5406     RCH_MSW                          

            TOTAL IN =      918407.3217              TOTAL IN =        2698.6967

          OUT:                                     OUT:
          ----                                     ----
              STO-SS =      117805.6019                STO-SS =       1.4809E-02     STORAGE                          
                 WEL =      233076.5918                   WEL =         678.6802     RIV_CORR                         
                 DRN =       60085.6405                   DRN =         227.0936     DRN_SYS1                         
                 RIV =      222739.7366                   RIV =         676.7885     RIV_SYS1                         
                 RIV =      162333.9962                   RIV =         615.3189     RIV_SYS2                         
                 RCH =      122369.0646                   RCH =         500.8061     RCH_MSW                          

           TOTAL OUT =      918410.6315             TOTAL OUT =        2698.7021

            IN - OUT =          -3.3099              IN - OUT =      -5.3677E-03

 PERCENT DISCREPANCY =          -0.00     PERCENT DISCREPANCY =          -0.00




         TIME SUMMARY AT END OF TIME STEP    1 IN STRESS PERIOD  240
                    SECONDS     MINUTES      HOURS       DAYS        YEARS
                    -----------------------------------------------------------
   TIME STEP LENGTH  86400.      1440.0      24.000      1.0000     2.73785E-03
 STRESS PERIOD TIME  86400.      1440.0      24.000      1.0000     2.73785E-03
         TOTAL TIME 2.07360E+07 3.45600E+05  5760.0      240.00     0.65708    


end timestep


start timestep kper="241" kstp="1" mode="normal"

 #Stressperiod Save Options

 BEGIN READING OUTPUT CONTROL FOR STRESS PERIOD 241
      ALL TIME STEPS WILL BE SAVED
      ALL TIME STEPS WILL BE SAVED

 END READING OUTPUT CONTROL FOR STRESS PERIOD 241


 PROCESSING STORAGE PERIOD DATA
 END PROCESSING STORAGE PERIOD DATA


 STRESS PERIOD 241 IS TRANSIENT


 REUSING WELS FROM LAST STRESS PERIOD

 REUSING DRNS FROM LAST STRESS PERIOD

 REUSING RIVS FROM LAST STRESS PERIOD

 REUSING RIVS FROM LAST STRESS PERIOD

 REUSING RCHS FROM LAST STRESS PERIOD
 UBDSV06 SAVING              DRN IN MODEL GWF_1            PACKAGE GWF_1           CONNECTED TO MODEL GWF_1            PACKAGE DRN_SYS1         ON UNIT   1019 AT TIME STEP      1, STRESS PERIOD    241
 UBDSV06 SAVING              RIV IN MODEL GWF_1            PACKAGE GWF_1           CONNECTED TO MODEL GWF_1            PACKAGE RIV_SYS1         ON UNIT   1019 AT TIME STEP      1, STRESS PERIOD    241
 UBDSV06 SAVING              RIV IN MODEL GWF_1            PACKAGE GWF_1           CONNECTED TO MODEL GWF_1            PACKAGE RIV_SYS2         ON UNIT   1019 AT TIME STEP      1, STRESS PERIOD    241

 HEAD WILL BE SAVED ON UNIT 1018 AT END OF TIME STEP    1, STRESS PERIOD  241


  VOLUME BUDGET FOR ENTIRE MODEL AT END OF TIME STEP    1, STRESS PERIOD 241
  ---------------------------------------------------------------------------------------------------

     CUMULATIVE VOLUME      L**3       RATES FOR THIS TIME STEP      L**3/T          PACKAGE NAME    
     ------------------                 ------------------------                     ----------------

           IN:                                      IN:
           ---                                      ---
              STO-SS =      180138.8308                STO-SS =          54.6816     STORAGE                          
                 WEL =      231700.7120                   WEL =        1295.4990     RIV_CORR                         
                 DRN =           0.0000                   DRN =           0.0000     DRN_SYS1                         
                 RIV =      224911.9165                   RIV =        1071.3375     RIV_SYS1                         
                 RIV =           0.0000                   RIV =           0.0000     RIV_SYS2                         
                 RCH =      284227.4051                   RCH =         150.0246     RCH_MSW                          

            TOTAL IN =      920978.8643              TOTAL IN =        2571.5427

          OUT:                                     OUT:
          ----                                     ----
              STO-SS =      117978.3614                STO-SS =         172.7596     STORAGE                          
                 WEL =      233753.3803                   WEL =         676.7885     RIV_CORR                         
                 DRN =       60312.5999                   DRN =         226.9595     DRN_SYS1                         
                 RIV =      223427.8762                   RIV =         688.1396     RIV_SYS1                         
                 RIV =      162948.9910                   RIV =         614.9948     RIV_SYS2                         
                 RCH =      122560.9186                   RCH =         191.8540     RCH_MSW                          

           TOTAL OUT =      920982.1275             TOTAL OUT =        2571.4960

            IN - OUT =          -3.2632              IN - OUT =       4.6676E-02

 PERCENT DISCREPANCY =          -0.00     PERCENT DISCREPANCY =           0.00




         TIME SUMMARY AT END OF TIME STEP    1 IN STRESS PERIOD  241
                    SECONDS     MINUTES      HOURS       DAYS        YEARS
                    -----------------------------------------------------------
   TIME STEP LENGTH  86400.      1440.0      24.000      1.0000     2.73785E-03
 STRESS PERIOD TIME  86400.      1440.0      24.000      1.0000     2.73785E-03
         TOTAL TIME 2.08224E+07 3.47040E+05  5784.0      241.00     0.65982    


end timestep


start timestep kper="242" kstp="1" mode="normal"

 #Stressperiod Save Options

 BEGIN READING OUTPUT CONTROL FOR STRESS PERIOD 242
      ALL TIME STEPS WILL BE SAVED
      ALL TIME STEPS WILL BE SAVED

 END READING OUTPUT CONTROL FOR STRESS PERIOD 242


 PROCESSING STORAGE PERIOD DATA
 END PROCESSING STORAGE PERIOD DATA


 STRESS PERIOD 242 IS TRANSIENT


 REUSING WELS FROM LAST STRESS PERIOD

 REUSING DRNS FROM LAST STRESS PERIOD

 REUSING RIVS FROM LAST STRESS PERIOD

 REUSING RIVS FROM LAST STRESS PERIOD

 REUSING RCHS FROM LAST STRESS PERIOD
 UBDSV06 SAVING              DRN IN MODEL GWF_1            PACKAGE GWF_1           CONNECTED TO MODEL GWF_1            PACKAGE DRN_SYS1         ON UNIT   1019 AT TIME STEP      1, STRESS PERIOD    242
 UBDSV06 SAVING              RIV IN MODEL GWF_1            PACKAGE GWF_1           CONNECTED TO MODEL GWF_1            PACKAGE RIV_SYS1         ON UNIT   1019 AT TIME STEP      1, STRESS PERIOD    242
 UBDSV06 SAVING              RIV IN MODEL GWF_1            PACKAGE GWF_1           CONNECTED TO MODEL GWF_1            PACKAGE RIV_SYS2         ON UNIT   1019 AT TIME STEP      1, STRESS PERIOD    242

 HEAD WILL BE SAVED ON UNIT 1018 AT END OF TIME STEP    1, STRESS PERIOD  242


  VOLUME BUDGET FOR ENTIRE MODEL AT END OF TIME STEP    1, STRESS PERIOD 242
  ---------------------------------------------------------------------------------------------------

     CUMULATIVE VOLUME      L**3       RATES FOR THIS TIME STEP      L**3/T          PACKAGE NAME    
     ------------------                 ------------------------                     ----------------

           IN:                                      IN:
           ---                                      ---
              STO-SS =      180197.8922                STO-SS =          59.0614     STORAGE                          
                 WEL =      232772.0495                   WEL =        1071.3375     RIV_CORR                         
                 DRN =           0.0000                   DRN =           0.0000     DRN_SYS1                         
                 RIV =      226070.8061                   RIV =        1158.8896     RIV_SYS1                         
                 RIV =           0.0000                   RIV =           0.0000     RIV_SYS2                         
                 RCH =      284331.8277                   RCH =         104.4226     RCH_MSW                          

            TOTAL IN =      923372.5755              TOTAL IN =        2393.7111

          OUT:                                     OUT:
          ----                                     ----
              STO-SS =      118021.5505                STO-SS =          43.1890     STORAGE                          
                 WEL =      234441.5199                   WEL =         688.1396     RIV_CORR                         
                 DRN =       60539.4976                   DRN =         226.8977     DRN_SYS1                         
                 RIV =      224104.9257                   RIV =         677.0495     RIV_SYS1                         
                 RIV =      163563.8482                   RIV =         614.8572     RIV_SYS2                         
                 RCH =      122704.4945                   RCH =         143.5759     RCH_MSW                          

           TOTAL OUT =      923375.8364             TOTAL OUT =        2393.7089

            IN - OUT =          -3.2609              IN - OUT =       2.2360E-03

 PERCENT DISCREPANCY =          -0.00     PERCENT DISCREPANCY =           0.00




         TIME SUMMARY AT END OF TIME STEP    1 IN STRESS PERIOD  242
                    SECONDS     MINUTES      HOURS       DAYS        YEARS
                    -----------------------------------------------------------
   TIME STEP LENGTH  86400.      1440.0      24.000      1.0000     2.73785E-03
 STRESS PERIOD TIME  86400.      1440.0      24.000      1.0000     2.73785E-03
         TOTAL TIME 2.09088E+07 3.48480E+05  5808.0      242.00     0.66256    


end timestep


start timestep kper="243" kstp="1" mode="normal"

 #Stressperiod Save Options

 BEGIN READING OUTPUT CONTROL FOR STRESS PERIOD 243
      ALL TIME STEPS WILL BE SAVED
      ALL TIME STEPS WILL BE SAVED

 END READING OUTPUT CONTROL FOR STRESS PERIOD 243


 PROCESSING STORAGE PERIOD DATA
 END PROCESSING STORAGE PERIOD DATA


 STRESS PERIOD 243 IS TRANSIENT


 REUSING WELS FROM LAST STRESS PERIOD

 REUSING DRNS FROM LAST STRESS PERIOD

 REUSING RIVS FROM LAST STRESS PERIOD

 REUSING RIVS FROM LAST STRESS PERIOD

 REUSING RCHS FROM LAST STRESS PERIOD
 UBDSV06 SAVING              DRN IN MODEL GWF_1            PACKAGE GWF_1           CONNECTED TO MODEL GWF_1            PACKAGE DRN_SYS1         ON UNIT   1019 AT TIME STEP      1, STRESS PERIOD    243
 UBDSV06 SAVING              RIV IN MODEL GWF_1            PACKAGE GWF_1           CONNECTED TO MODEL GWF_1            PACKAGE RIV_SYS1         ON UNIT   1019 AT TIME STEP      1, STRESS PERIOD    243
 UBDSV06 SAVING              RIV IN MODEL GWF_1            PACKAGE GWF_1           CONNECTED TO MODEL GWF_1            PACKAGE RIV_SYS2         ON UNIT   1019 AT TIME STEP      1, STRESS PERIOD    243

 HEAD WILL BE SAVED ON UNIT 1018 AT END OF TIME STEP    1, STRESS PERIOD  243


  VOLUME BUDGET FOR ENTIRE MODEL AT END OF TIME STEP    1, STRESS PERIOD 243
  ---------------------------------------------------------------------------------------------------

     CUMULATIVE VOLUME      L**3       RATES FOR THIS TIME STEP      L**3/T          PACKAGE NAME    
     ------------------                 ------------------------                     ----------------

           IN:                                      IN:
           ---                                      ---
              STO-SS =      180260.6296                STO-SS =          62.7374     STORAGE                          
                 WEL =      233930.9391                   WEL =        1158.8896     RIV_CORR                         
                 DRN =           0.0000                   DRN =           0.0000     DRN_SYS1                         
                 RIV =      227242.9367                   RIV =        1172.1306     RIV_SYS1                         
                 RIV =           0.0000                   RIV =           0.0000     RIV_SYS2                         
                 RCH =      284348.7613                   RCH =          16.9336     RCH_MSW                          

            TOTAL IN =      925783.2666              TOTAL IN =        2410.6911

          OUT:                                     OUT:
          ----                                     ----
              STO-SS =      118025.3362                STO-SS =           3.7858     STORAGE                          
                 WEL =      235118.5694                   WEL =         677.0495     RIV_CORR                         
                 DRN =       60766.3454                   DRN =         226.8478     DRN_SYS1                         
                 RIV =      224781.6270                   RIV =         676.7013     RIV_SYS1                         
                 RIV =      164178.5908                   RIV =         614.7426     RIV_SYS2                         
                 RCH =      122916.0766                   RCH =         211.5820     RCH_MSW                          

           TOTAL OUT =      925786.5454             TOTAL OUT =        2410.7090

            IN - OUT =          -3.2788              IN - OUT =      -1.7834E-02

 PERCENT DISCREPANCY =          -0.00     PERCENT DISCREPANCY =          -0.00




         TIME SUMMARY AT END OF TIME STEP    1 IN STRESS PERIOD  243
                    SECONDS     MINUTES      HOURS       DAYS        YEARS
                    -----------------------------------------------------------
   TIME STEP LENGTH  86400.      1440.0      24.000      1.0000     2.73785E-03
 STRESS PERIOD TIME  86400.      1440.0      24.000      1.0000     2.73785E-03
         TOTAL TIME 2.09952E+07 3.49920E+05  5832.0      243.00     0.66530    


end timestep


start timestep kper="244" kstp="1" mode="normal"

 #Stressperiod Save Options

 BEGIN READING OUTPUT CONTROL FOR STRESS PERIOD 244
      ALL TIME STEPS WILL BE SAVED
      ALL TIME STEPS WILL BE SAVED

 END READING OUTPUT CONTROL FOR STRESS PERIOD 244


 PROCESSING STORAGE PERIOD DATA
 END PROCESSING STORAGE PERIOD DATA


 STRESS PERIOD 244 IS TRANSIENT


 REUSING WELS FROM LAST STRESS PERIOD

 REUSING DRNS FROM LAST STRESS PERIOD

 REUSING RIVS FROM LAST STRESS PERIOD

 REUSING RIVS FROM LAST STRESS PERIOD

 REUSING RCHS FROM LAST STRESS PERIOD
 UBDSV06 SAVING              DRN IN MODEL GWF_1            PACKAGE GWF_1           CONNECTED TO MODEL GWF_1            PACKAGE DRN_SYS1         ON UNIT   1019 AT TIME STEP      1, STRESS PERIOD    244
 UBDSV06 SAVING              RIV IN MODEL GWF_1            PACKAGE GWF_1           CONNECTED TO MODEL GWF_1            PACKAGE RIV_SYS1         ON UNIT   1019 AT TIME STEP      1, STRESS PERIOD    244
 UBDSV06 SAVING              RIV IN MODEL GWF_1            PACKAGE GWF_1           CONNECTED TO MODEL GWF_1            PACKAGE RIV_SYS2         ON UNIT   1019 AT TIME STEP      1, STRESS PERIOD    244

 HEAD WILL BE SAVED ON UNIT 1018 AT END OF TIME STEP    1, STRESS PERIOD  244


  VOLUME BUDGET FOR ENTIRE MODEL AT END OF TIME STEP    1, STRESS PERIOD 244
  ---------------------------------------------------------------------------------------------------

     CUMULATIVE VOLUME      L**3       RATES FOR THIS TIME STEP      L**3/T          PACKAGE NAME    
     ------------------                 ------------------------                     ----------------

           IN:                                      IN:
           ---                                      ---
              STO-SS =      180284.1486                STO-SS =          23.5191     STORAGE                          
                 WEL =      235103.0697                   WEL =        1172.1306     RIV_CORR                         
                 DRN =           0.0000                   DRN =           0.0000     DRN_SYS1                         
                 RIV =      228334.9206                   RIV =        1091.9840     RIV_SYS1                         
                 RIV =           0.0000                   RIV =           0.0000     RIV_SYS2                         
                 RCH =      284473.6313                   RCH =         124.8700     RCH_MSW                          

            TOTAL IN =      928195.7703              TOTAL IN =        2412.5037

          OUT:                                     OUT:
          ----                                     ----
              STO-SS =      118127.8484                STO-SS =         102.5122     STORAGE                          
                 WEL =      235795.2706                   WEL =         676.7013     RIV_CORR                         
                 DRN =       60993.2020                   DRN =         226.8566     DRN_SYS1                         
                 RIV =      225459.1268                   RIV =         677.4998     RIV_SYS1                         
                 RIV =      164793.3796                   RIV =         614.7888     RIV_SYS2                         
                 RCH =      123030.2169                   RCH =         114.1403     RCH_MSW                          

           TOTAL OUT =      928199.0444             TOTAL OUT =        2412.4990

            IN - OUT =          -3.2741              IN - OUT =       4.6707E-03

 PERCENT DISCREPANCY =          -0.00     PERCENT DISCREPANCY =           0.00




         TIME SUMMARY AT END OF TIME STEP    1 IN STRESS PERIOD  244
                    SECONDS     MINUTES      HOURS       DAYS        YEARS
                    -----------------------------------------------------------
   TIME STEP LENGTH  86400.      1440.0      24.000      1.0000     2.73785E-03
 STRESS PERIOD TIME  86400.      1440.0      24.000      1.0000     2.73785E-03
         TOTAL TIME 2.10816E+07 3.51360E+05  5856.0      244.00     0.66804    


end timestep


start timestep kper="245" kstp="1" mode="normal"

 #Stressperiod Save Options

 BEGIN READING OUTPUT CONTROL FOR STRESS PERIOD 245
      ALL TIME STEPS WILL BE SAVED
      ALL TIME STEPS WILL BE SAVED

 END READING OUTPUT CONTROL FOR STRESS PERIOD 245


 PROCESSING STORAGE PERIOD DATA
 END PROCESSING STORAGE PERIOD DATA


 STRESS PERIOD 245 IS TRANSIENT


 REUSING WELS FROM LAST STRESS PERIOD

 REUSING DRNS FROM LAST STRESS PERIOD

 REUSING RIVS FROM LAST STRESS PERIOD

 REUSING RIVS FROM LAST STRESS PERIOD

 REUSING RCHS FROM LAST STRESS PERIOD
 UBDSV06 SAVING              DRN IN MODEL GWF_1            PACKAGE GWF_1           CONNECTED TO MODEL GWF_1            PACKAGE DRN_SYS1         ON UNIT   1019 AT TIME STEP      1, STRESS PERIOD    245
 UBDSV06 SAVING              RIV IN MODEL GWF_1            PACKAGE GWF_1           CONNECTED TO MODEL GWF_1            PACKAGE RIV_SYS1         ON UNIT   1019 AT TIME STEP      1, STRESS PERIOD    245
 UBDSV06 SAVING              RIV IN MODEL GWF_1            PACKAGE GWF_1           CONNECTED TO MODEL GWF_1            PACKAGE RIV_SYS2         ON UNIT   1019 AT TIME STEP      1, STRESS PERIOD    245

 HEAD WILL BE SAVED ON UNIT 1018 AT END OF TIME STEP    1, STRESS PERIOD  245


  VOLUME BUDGET FOR ENTIRE MODEL AT END OF TIME STEP    1, STRESS PERIOD 245
  ---------------------------------------------------------------------------------------------------

     CUMULATIVE VOLUME      L**3       RATES FOR THIS TIME STEP      L**3/T          PACKAGE NAME    
     ------------------                 ------------------------                     ----------------

           IN:                                      IN:
           ---                                      ---
              STO-SS =      180311.2624                STO-SS =          27.1138     STORAGE                          
                 WEL =      236195.0537                   WEL =        1091.9840     RIV_CORR                         
                 DRN =           0.0000                   DRN =           0.0000     DRN_SYS1                         
                 RIV =      229464.1703                   RIV =        1129.2497     RIV_SYS1                         
                 RIV =           0.0000                   RIV =           0.0000     RIV_SYS2                         
                 RCH =      284562.1681                   RCH =          88.5368     RCH_MSW                          

            TOTAL IN =      930532.6546              TOTAL IN =        2336.8843

          OUT:                                     OUT:
          ----                                     ----
              STO-SS =      118171.3215                STO-SS =          43.4731     STORAGE                          
                 WEL =      236472.7705                   WEL =         677.4998     RIV_CORR                         
                 DRN =       61220.1048                   DRN =         226.9029     DRN_SYS1                         
                 RIV =      226137.0300                   RIV =         677.9032     RIV_SYS1                         
                 RIV =      165408.2861                   RIV =         614.9065     RIV_SYS2                         
                 RCH =      123126.3616                   RCH =          96.1448     RCH_MSW                          

           TOTAL OUT =      930535.8746             TOTAL OUT =        2336.8303

            IN - OUT =          -3.2201              IN - OUT =       5.4033E-02

 PERCENT DISCREPANCY =          -0.00     PERCENT DISCREPANCY =           0.00




         TIME SUMMARY AT END OF TIME STEP    1 IN STRESS PERIOD  245
                    SECONDS     MINUTES      HOURS       DAYS        YEARS
                    -----------------------------------------------------------
   TIME STEP LENGTH  86400.      1440.0      24.000      1.0000     2.73785E-03
 STRESS PERIOD TIME  86400.      1440.0      24.000      1.0000     2.73785E-03
         TOTAL TIME 2.11680E+07 3.52800E+05  5880.0      245.00     0.67077    


end timestep


start timestep kper="246" kstp="1" mode="normal"

 #Stressperiod Save Options

 BEGIN READING OUTPUT CONTROL FOR STRESS PERIOD 246
      ALL TIME STEPS WILL BE SAVED
      ALL TIME STEPS WILL BE SAVED

 END READING OUTPUT CONTROL FOR STRESS PERIOD 246


 PROCESSING STORAGE PERIOD DATA
 END PROCESSING STORAGE PERIOD DATA


 STRESS PERIOD 246 IS TRANSIENT


 REUSING WELS FROM LAST STRESS PERIOD

 REUSING DRNS FROM LAST STRESS PERIOD

 REUSING RIVS FROM LAST STRESS PERIOD

 REUSING RIVS FROM LAST STRESS PERIOD

 REUSING RCHS FROM LAST STRESS PERIOD
 UBDSV06 SAVING              DRN IN MODEL GWF_1            PACKAGE GWF_1           CONNECTED TO MODEL GWF_1            PACKAGE DRN_SYS1         ON UNIT   1019 AT TIME STEP      1, STRESS PERIOD    246
 UBDSV06 SAVING              RIV IN MODEL GWF_1            PACKAGE GWF_1           CONNECTED TO MODEL GWF_1            PACKAGE RIV_SYS1         ON UNIT   1019 AT TIME STEP      1, STRESS PERIOD    246
 UBDSV06 SAVING              RIV IN MODEL GWF_1            PACKAGE GWF_1           CONNECTED TO MODEL GWF_1            PACKAGE RIV_SYS2         ON UNIT   1019 AT TIME STEP      1, STRESS PERIOD    246

 HEAD WILL BE SAVED ON UNIT 1018 AT END OF TIME STEP    1, STRESS PERIOD  246


  VOLUME BUDGET FOR ENTIRE MODEL AT END OF TIME STEP    1, STRESS PERIOD 246
  ---------------------------------------------------------------------------------------------------

     CUMULATIVE VOLUME      L**3       RATES FOR THIS TIME STEP      L**3/T          PACKAGE NAME    
     ------------------                 ------------------------                     ----------------

           IN:                                      IN:
           ---                                      ---
              STO-SS =      180311.2624                STO-SS =           0.0000     STORAGE                          
                 WEL =      237324.3033                   WEL =        1129.2497     RIV_CORR                         
                 DRN =           0.0000                   DRN =           0.0000     DRN_SYS1                         
                 RIV =      230054.1355                   RIV =         589.9652     RIV_SYS1                         
                 RIV =           0.0000                   RIV =           0.0000     RIV_SYS2                         
                 RCH =      287297.6572                   RCH =        2735.4891     RCH_MSW                          

            TOTAL IN =      934987.3585              TOTAL IN =        4454.7039

          OUT:                                     OUT:
          ----                                     ----
              STO-SS =      119936.4193                STO-SS =        1765.0978     STORAGE                          
                 WEL =      237150.6737                   WEL =         677.9032     RIV_CORR                         
                 DRN =       61448.4861                   DRN =         228.3812     DRN_SYS1                         
                 RIV =      227297.5185                   RIV =        1160.4885     RIV_SYS1                         
                 RIV =      166026.7671                   RIV =         618.4810     RIV_SYS2                         
                 RCH =      123130.6950                   RCH =           4.3334     RCH_MSW                          

           TOTAL OUT =      934990.5597             TOTAL OUT =        4454.6851

            IN - OUT =          -3.2012              IN - OUT =       1.8882E-02

 PERCENT DISCREPANCY =          -0.00     PERCENT DISCREPANCY =           0.00




         TIME SUMMARY AT END OF TIME STEP    1 IN STRESS PERIOD  246
                    SECONDS     MINUTES      HOURS       DAYS        YEARS
                    -----------------------------------------------------------
   TIME STEP LENGTH  86400.      1440.0      24.000      1.0000     2.73785E-03
 STRESS PERIOD TIME  86400.      1440.0      24.000      1.0000     2.73785E-03
         TOTAL TIME 2.12544E+07 3.54240E+05  5904.0      246.00     0.67351    


end timestep


start timestep kper="247" kstp="1" mode="normal"

 #Stressperiod Save Options

 BEGIN READING OUTPUT CONTROL FOR STRESS PERIOD 247
      ALL TIME STEPS WILL BE SAVED
      ALL TIME STEPS WILL BE SAVED

 END READING OUTPUT CONTROL FOR STRESS PERIOD 247


 PROCESSING STORAGE PERIOD DATA
 END PROCESSING STORAGE PERIOD DATA


 STRESS PERIOD 247 IS TRANSIENT


 REUSING WELS FROM LAST STRESS PERIOD

 REUSING DRNS FROM LAST STRESS PERIOD

 REUSING RIVS FROM LAST STRESS PERIOD

 REUSING RIVS FROM LAST STRESS PERIOD

 REUSING RCHS FROM LAST STRESS PERIOD
 UBDSV06 SAVING              DRN IN MODEL GWF_1            PACKAGE GWF_1           CONNECTED TO MODEL GWF_1            PACKAGE DRN_SYS1         ON UNIT   1019 AT TIME STEP      1, STRESS PERIOD    247
 UBDSV06 SAVING              RIV IN MODEL GWF_1            PACKAGE GWF_1           CONNECTED TO MODEL GWF_1            PACKAGE RIV_SYS1         ON UNIT   1019 AT TIME STEP      1, STRESS PERIOD    247
 UBDSV06 SAVING              RIV IN MODEL GWF_1            PACKAGE GWF_1           CONNECTED TO MODEL GWF_1            PACKAGE RIV_SYS2         ON UNIT   1019 AT TIME STEP      1, STRESS PERIOD    247

 HEAD WILL BE SAVED ON UNIT 1018 AT END OF TIME STEP    1, STRESS PERIOD  247


  VOLUME BUDGET FOR ENTIRE MODEL AT END OF TIME STEP    1, STRESS PERIOD 247
  ---------------------------------------------------------------------------------------------------

     CUMULATIVE VOLUME      L**3       RATES FOR THIS TIME STEP      L**3/T          PACKAGE NAME    
     ------------------                 ------------------------                     ----------------

           IN:                                      IN:
           ---                                      ---
              STO-SS =      180580.6730                STO-SS =         269.4106     STORAGE                          
                 WEL =      237914.2686                   WEL =         589.9652     RIV_CORR                         
                 DRN =           0.0000                   DRN =           0.0000     DRN_SYS1                         
                 RIV =      231005.5853                   RIV =         951.4497     RIV_SYS1                         
                 RIV =           0.0000                   RIV =           0.0000     RIV_SYS2                         
                 RCH =      289013.0725                   RCH =        1715.4153     RCH_MSW                          

            TOTAL IN =      938513.5993              TOTAL IN =        3526.2408

          OUT:                                     OUT:
          ----                                     ----
              STO-SS =      120726.5694                STO-SS =         790.1500     STORAGE                          
                 WEL =      238311.1622                   WEL =        1160.4885     RIV_CORR                         
                 DRN =       61678.8541                   DRN =         230.3680     DRN_SYS1                         
                 RIV =      228019.5627                   RIV =         722.0442     RIV_SYS1                         
                 RIV =      166649.9390                   RIV =         623.1719     RIV_SYS2                         
                 RCH =      123130.6950                   RCH =           0.0000     RCH_MSW                          

           TOTAL OUT =      938516.7823             TOTAL OUT =        3526.2226

            IN - OUT =          -3.1830              IN - OUT =       1.8203E-02

 PERCENT DISCREPANCY =          -0.00     PERCENT DISCREPANCY =           0.00




         TIME SUMMARY AT END OF TIME STEP    1 IN STRESS PERIOD  247
                    SECONDS     MINUTES      HOURS       DAYS        YEARS
                    -----------------------------------------------------------
   TIME STEP LENGTH  86400.      1440.0      24.000      1.0000     2.73785E-03
 STRESS PERIOD TIME  86400.      1440.0      24.000      1.0000     2.73785E-03
         TOTAL TIME 2.13408E+07 3.55680E+05  5928.0      247.00     0.67625    


end timestep


start timestep kper="248" kstp="1" mode="normal"

 #Stressperiod Save Options

 BEGIN READING OUTPUT CONTROL FOR STRESS PERIOD 248
      ALL TIME STEPS WILL BE SAVED
      ALL TIME STEPS WILL BE SAVED

 END READING OUTPUT CONTROL FOR STRESS PERIOD 248


 PROCESSING STORAGE PERIOD DATA
 END PROCESSING STORAGE PERIOD DATA


 STRESS PERIOD 248 IS TRANSIENT


 REUSING WELS FROM LAST STRESS PERIOD

 REUSING DRNS FROM LAST STRESS PERIOD

 REUSING RIVS FROM LAST STRESS PERIOD

 REUSING RIVS FROM LAST STRESS PERIOD

 REUSING RCHS FROM LAST STRESS PERIOD
 UBDSV06 SAVING              DRN IN MODEL GWF_1            PACKAGE GWF_1           CONNECTED TO MODEL GWF_1            PACKAGE DRN_SYS1         ON UNIT   1019 AT TIME STEP      1, STRESS PERIOD    248
 UBDSV06 SAVING              RIV IN MODEL GWF_1            PACKAGE GWF_1           CONNECTED TO MODEL GWF_1            PACKAGE RIV_SYS1         ON UNIT   1019 AT TIME STEP      1, STRESS PERIOD    248
 UBDSV06 SAVING              RIV IN MODEL GWF_1            PACKAGE GWF_1           CONNECTED TO MODEL GWF_1            PACKAGE RIV_SYS2         ON UNIT   1019 AT TIME STEP      1, STRESS PERIOD    248

 HEAD WILL BE SAVED ON UNIT 1018 AT END OF TIME STEP    1, STRESS PERIOD  248


  VOLUME BUDGET FOR ENTIRE MODEL AT END OF TIME STEP    1, STRESS PERIOD 248
  ---------------------------------------------------------------------------------------------------

     CUMULATIVE VOLUME      L**3       RATES FOR THIS TIME STEP      L**3/T          PACKAGE NAME    
     ------------------                 ------------------------                     ----------------

           IN:                                      IN:
           ---                                      ---
              STO-SS =      180580.6730                STO-SS =           0.0000     STORAGE                          
                 WEL =      238865.7183                   WEL =         951.4497     RIV_CORR                         
                 DRN =           0.0000                   DRN =           0.0000     DRN_SYS1                         
                 RIV =      231562.9055                   RIV =         557.3203     RIV_SYS1                         
                 RIV =           0.0000                   RIV =           0.0000     RIV_SYS2                         
                 RCH =      291977.4827                   RCH =        2964.4102     RCH_MSW                          

            TOTAL IN =      942986.7795              TOTAL IN =        4473.1802

          OUT:                                     OUT:
          ----                                     ----
              STO-SS =      122502.7786                STO-SS =        1776.2093     STORAGE                          
                 WEL =      239033.2063                   WEL =         722.0442     RIV_CORR                         
                 DRN =       61912.4620                   DRN =         233.6078     DRN_SYS1                         
                 RIV =      229130.1561                   RIV =        1110.5934     RIV_SYS1                         
                 RIV =      167280.5599                   RIV =         630.6210     RIV_SYS2                         
                 RCH =      123130.6950                   RCH =           0.0000     RCH_MSW                          

           TOTAL OUT =      942989.8580             TOTAL OUT =        4473.0757

            IN - OUT =          -3.0785              IN - OUT =           0.1045

 PERCENT DISCREPANCY =          -0.00     PERCENT DISCREPANCY =           0.00




         TIME SUMMARY AT END OF TIME STEP    1 IN STRESS PERIOD  248
                    SECONDS     MINUTES      HOURS       DAYS        YEARS
                    -----------------------------------------------------------
   TIME STEP LENGTH  86400.      1440.0      24.000      1.0000     2.73785E-03
 STRESS PERIOD TIME  86400.      1440.0      24.000      1.0000     2.73785E-03
         TOTAL TIME 2.14272E+07 3.57120E+05  5952.0      248.00     0.67899    


end timestep


start timestep kper="249" kstp="1" mode="normal"

 #Stressperiod Save Options

 BEGIN READING OUTPUT CONTROL FOR STRESS PERIOD 249
      ALL TIME STEPS WILL BE SAVED
      ALL TIME STEPS WILL BE SAVED

 END READING OUTPUT CONTROL FOR STRESS PERIOD 249


 PROCESSING STORAGE PERIOD DATA
 END PROCESSING STORAGE PERIOD DATA


 STRESS PERIOD 249 IS TRANSIENT


 REUSING WELS FROM LAST STRESS PERIOD

 REUSING DRNS FROM LAST STRESS PERIOD

 REUSING RIVS FROM LAST STRESS PERIOD

 REUSING RIVS FROM LAST STRESS PERIOD

 REUSING RCHS FROM LAST STRESS PERIOD
 UBDSV06 SAVING              DRN IN MODEL GWF_1            PACKAGE GWF_1           CONNECTED TO MODEL GWF_1            PACKAGE DRN_SYS1         ON UNIT   1019 AT TIME STEP      1, STRESS PERIOD    249
 UBDSV06 SAVING              RIV IN MODEL GWF_1            PACKAGE GWF_1           CONNECTED TO MODEL GWF_1            PACKAGE RIV_SYS1         ON UNIT   1019 AT TIME STEP      1, STRESS PERIOD    249
 UBDSV06 SAVING              RIV IN MODEL GWF_1            PACKAGE GWF_1           CONNECTED TO MODEL GWF_1            PACKAGE RIV_SYS2         ON UNIT   1019 AT TIME STEP      1, STRESS PERIOD    249

 HEAD WILL BE SAVED ON UNIT 1018 AT END OF TIME STEP    1, STRESS PERIOD  249


  VOLUME BUDGET FOR ENTIRE MODEL AT END OF TIME STEP    1, STRESS PERIOD 249
  ---------------------------------------------------------------------------------------------------

     CUMULATIVE VOLUME      L**3       RATES FOR THIS TIME STEP      L**3/T          PACKAGE NAME    
     ------------------                 ------------------------                     ----------------

           IN:                                      IN:
           ---                                      ---
              STO-SS =      181105.3084                STO-SS =         524.6354     STORAGE                          
                 WEL =      239423.0386                   WEL =         557.3203     RIV_CORR                         
                 DRN =           0.0000                   DRN =           0.0000     DRN_SYS1                         
                 RIV =      232545.3778                   RIV =         982.4723     RIV_SYS1                         
                 RIV =           0.0000                   RIV =           0.0000     RIV_SYS2                         
                 RCH =      293423.4200                   RCH =        1445.9374     RCH_MSW                          

            TOTAL IN =      946497.1448              TOTAL IN =        3510.3653

          OUT:                                     OUT:
          ----                                     ----
              STO-SS =      123263.1603                STO-SS =         760.3817     STORAGE                          
                 WEL =      240143.7998                   WEL =        1110.5934     RIV_CORR                         
                 DRN =       62148.2732                   DRN =         235.8112     DRN_SYS1                         
                 RIV =      229882.8314                   RIV =         752.6753     RIV_SYS1                         
                 RIV =      167916.2124                   RIV =         635.6525     RIV_SYS2                         
                 RCH =      123145.9693                   RCH =          15.2743     RCH_MSW                          

           TOTAL OUT =      946500.2464             TOTAL OUT =        3510.3884

            IN - OUT =          -3.1016              IN - OUT =      -2.3070E-02

 PERCENT DISCREPANCY =          -0.00     PERCENT DISCREPANCY =          -0.00




         TIME SUMMARY AT END OF TIME STEP    1 IN STRESS PERIOD  249
                    SECONDS     MINUTES      HOURS       DAYS        YEARS
                    -----------------------------------------------------------
   TIME STEP LENGTH  86400.      1440.0      24.000      1.0000     2.73785E-03
 STRESS PERIOD TIME  86400.      1440.0      24.000      1.0000     2.73785E-03
         TOTAL TIME 2.15136E+07 3.58560E+05  5976.0      249.00     0.68172    


end timestep


start timestep kper="250" kstp="1" mode="normal"

 #Stressperiod Save Options

 BEGIN READING OUTPUT CONTROL FOR STRESS PERIOD 250
      ALL TIME STEPS WILL BE SAVED
      ALL TIME STEPS WILL BE SAVED

 END READING OUTPUT CONTROL FOR STRESS PERIOD 250


 PROCESSING STORAGE PERIOD DATA
 END PROCESSING STORAGE PERIOD DATA


 STRESS PERIOD 250 IS TRANSIENT


 REUSING WELS FROM LAST STRESS PERIOD

 REUSING DRNS FROM LAST STRESS PERIOD

 REUSING RIVS FROM LAST STRESS PERIOD

 REUSING RIVS FROM LAST STRESS PERIOD

 REUSING RCHS FROM LAST STRESS PERIOD
 UBDSV06 SAVING              DRN IN MODEL GWF_1            PACKAGE GWF_1           CONNECTED TO MODEL GWF_1            PACKAGE DRN_SYS1         ON UNIT   1019 AT TIME STEP      1, STRESS PERIOD    250
 UBDSV06 SAVING              RIV IN MODEL GWF_1            PACKAGE GWF_1           CONNECTED TO MODEL GWF_1            PACKAGE RIV_SYS1         ON UNIT   1019 AT TIME STEP      1, STRESS PERIOD    250
 UBDSV06 SAVING              RIV IN MODEL GWF_1            PACKAGE GWF_1           CONNECTED TO MODEL GWF_1            PACKAGE RIV_SYS2         ON UNIT   1019 AT TIME STEP      1, STRESS PERIOD    250

 HEAD WILL BE SAVED ON UNIT 1018 AT END OF TIME STEP    1, STRESS PERIOD  250


  VOLUME BUDGET FOR ENTIRE MODEL AT END OF TIME STEP    1, STRESS PERIOD 250
  ---------------------------------------------------------------------------------------------------

     CUMULATIVE VOLUME      L**3       RATES FOR THIS TIME STEP      L**3/T          PACKAGE NAME    
     ------------------                 ------------------------                     ----------------

           IN:                                      IN:
           ---                                      ---
              STO-SS =      181283.2867                STO-SS =         177.9782     STORAGE                          
                 WEL =      240405.5108                   WEL =         982.4723     RIV_CORR                         
                 DRN =           0.0000                   DRN =           0.0000     DRN_SYS1                         
                 RIV =      233329.0462                   RIV =         783.6684     RIV_SYS1                         
                 RIV =           0.0000                   RIV =           0.0000     RIV_SYS2                         
                 RCH =      294526.3502                   RCH =        1102.9302     RCH_MSW                          

            TOTAL IN =      949544.1939              TOTAL IN =        3047.0491

          OUT:                                     OUT:
          ----                                     ----
              STO-SS =      123874.4268                STO-SS =         611.2665     STORAGE                          
                 WEL =      240896.4751                   WEL =         752.6753     RIV_CORR                         
                 DRN =       62385.3146                   DRN =         237.0414     DRN_SYS1                         
                 RIV =      230662.1938                   RIV =         779.3623     RIV_SYS1                         
                 RIV =      168554.6837                   RIV =         638.4713     RIV_SYS2                         
                 RCH =      123174.1971                   RCH =          28.2278     RCH_MSW                          

           TOTAL OUT =      949547.2910             TOTAL OUT =        3047.0446

            IN - OUT =          -3.0971              IN - OUT =       4.5242E-03

 PERCENT DISCREPANCY =          -0.00     PERCENT DISCREPANCY =           0.00




         TIME SUMMARY AT END OF TIME STEP    1 IN STRESS PERIOD  250
                    SECONDS     MINUTES      HOURS       DAYS        YEARS
                    -----------------------------------------------------------
   TIME STEP LENGTH  86400.      1440.0      24.000      1.0000     2.73785E-03
 STRESS PERIOD TIME  86400.      1440.0      24.000      1.0000     2.73785E-03
         TOTAL TIME 2.16000E+07 3.60000E+05  6000.0      250.00     0.68446    


end timestep


start timestep kper="251" kstp="1" mode="normal"

 #Stressperiod Save Options

 BEGIN READING OUTPUT CONTROL FOR STRESS PERIOD 251
      ALL TIME STEPS WILL BE SAVED
      ALL TIME STEPS WILL BE SAVED

 END READING OUTPUT CONTROL FOR STRESS PERIOD 251


 PROCESSING STORAGE PERIOD DATA
 END PROCESSING STORAGE PERIOD DATA


 STRESS PERIOD 251 IS TRANSIENT


 REUSING WELS FROM LAST STRESS PERIOD

 REUSING DRNS FROM LAST STRESS PERIOD

 REUSING RIVS FROM LAST STRESS PERIOD

 REUSING RIVS FROM LAST STRESS PERIOD

 REUSING RCHS FROM LAST STRESS PERIOD
 UBDSV06 SAVING              DRN IN MODEL GWF_1            PACKAGE GWF_1           CONNECTED TO MODEL GWF_1            PACKAGE DRN_SYS1         ON UNIT   1019 AT TIME STEP      1, STRESS PERIOD    251
 UBDSV06 SAVING              RIV IN MODEL GWF_1            PACKAGE GWF_1           CONNECTED TO MODEL GWF_1            PACKAGE RIV_SYS1         ON UNIT   1019 AT TIME STEP      1, STRESS PERIOD    251
 UBDSV06 SAVING              RIV IN MODEL GWF_1            PACKAGE GWF_1           CONNECTED TO MODEL GWF_1            PACKAGE RIV_SYS2         ON UNIT   1019 AT TIME STEP      1, STRESS PERIOD    251

 HEAD WILL BE SAVED ON UNIT 1018 AT END OF TIME STEP    1, STRESS PERIOD  251


  VOLUME BUDGET FOR ENTIRE MODEL AT END OF TIME STEP    1, STRESS PERIOD 251
  ---------------------------------------------------------------------------------------------------

     CUMULATIVE VOLUME      L**3       RATES FOR THIS TIME STEP      L**3/T          PACKAGE NAME    
     ------------------                 ------------------------                     ----------------

           IN:                                      IN:
           ---                                      ---
              STO-SS =      181283.2867                STO-SS =           0.0000     STORAGE                          
                 WEL =      241189.1793                   WEL =         783.6684     RIV_CORR                         
                 DRN =           0.0000                   DRN =           0.0000     DRN_SYS1                         
                 RIV =      233967.3094                   RIV =         638.2632     RIV_SYS1                         
                 RIV =           0.0000                   RIV =           0.0000     RIV_SYS2                         
                 RCH =      296553.9189                   RCH =        2027.5687     RCH_MSW                          

            TOTAL IN =      952993.6942              TOTAL IN =        3449.5003

          OUT:                                     OUT:
          ----                                     ----
              STO-SS =      124806.4750                STO-SS =         932.0482     STORAGE                          
                 WEL =      241675.8374                   WEL =         779.3623     RIV_CORR                         
                 DRN =       62623.8448                   DRN =         238.5303     DRN_SYS1                         
                 RIV =      231519.8009                   RIV =         857.6071     RIV_SYS1                         
                 RIV =      169196.5970                   RIV =         641.9134     RIV_SYS2                         
                 RCH =      123174.1971                   RCH =           0.0000     RCH_MSW                          

           TOTAL OUT =      952996.7523             TOTAL OUT =        3449.4613

            IN - OUT =          -3.0581              IN - OUT =       3.8980E-02

 PERCENT DISCREPANCY =          -0.00     PERCENT DISCREPANCY =           0.00




         TIME SUMMARY AT END OF TIME STEP    1 IN STRESS PERIOD  251
                    SECONDS     MINUTES      HOURS       DAYS        YEARS
                    -----------------------------------------------------------
   TIME STEP LENGTH  86400.      1440.0      24.000      1.0000     2.73785E-03
 STRESS PERIOD TIME  86400.      1440.0      24.000      1.0000     2.73785E-03
         TOTAL TIME 2.16864E+07 3.61440E+05  6024.0      251.00     0.68720    


end timestep


start timestep kper="252" kstp="1" mode="normal"

 #Stressperiod Save Options

 BEGIN READING OUTPUT CONTROL FOR STRESS PERIOD 252
      ALL TIME STEPS WILL BE SAVED
      ALL TIME STEPS WILL BE SAVED

 END READING OUTPUT CONTROL FOR STRESS PERIOD 252


 PROCESSING STORAGE PERIOD DATA
 END PROCESSING STORAGE PERIOD DATA


 STRESS PERIOD 252 IS TRANSIENT


 REUSING WELS FROM LAST STRESS PERIOD

 REUSING DRNS FROM LAST STRESS PERIOD

 REUSING RIVS FROM LAST STRESS PERIOD

 REUSING RIVS FROM LAST STRESS PERIOD

 REUSING RCHS FROM LAST STRESS PERIOD
 UBDSV06 SAVING              DRN IN MODEL GWF_1            PACKAGE GWF_1           CONNECTED TO MODEL GWF_1            PACKAGE DRN_SYS1         ON UNIT   1019 AT TIME STEP      1, STRESS PERIOD    252
 UBDSV06 SAVING              RIV IN MODEL GWF_1            PACKAGE GWF_1           CONNECTED TO MODEL GWF_1            PACKAGE RIV_SYS1         ON UNIT   1019 AT TIME STEP      1, STRESS PERIOD    252
 UBDSV06 SAVING              RIV IN MODEL GWF_1            PACKAGE GWF_1           CONNECTED TO MODEL GWF_1            PACKAGE RIV_SYS2         ON UNIT   1019 AT TIME STEP      1, STRESS PERIOD    252

 HEAD WILL BE SAVED ON UNIT 1018 AT END OF TIME STEP    1, STRESS PERIOD  252


  VOLUME BUDGET FOR ENTIRE MODEL AT END OF TIME STEP    1, STRESS PERIOD 252
  ---------------------------------------------------------------------------------------------------

     CUMULATIVE VOLUME      L**3       RATES FOR THIS TIME STEP      L**3/T          PACKAGE NAME    
     ------------------                 ------------------------                     ----------------

           IN:                                      IN:
           ---                                      ---
              STO-SS =      181366.0535                STO-SS =          82.7669     STORAGE                          
                 WEL =      241827.4424                   WEL =         638.2632     RIV_CORR                         
                 DRN =           0.0000                   DRN =           0.0000     DRN_SYS1                         
                 RIV =      234724.5243                   RIV =         757.2149     RIV_SYS1                         
                 RIV =           0.0000                   RIV =           0.0000     RIV_SYS2                         
                 RCH =      298250.6711                   RCH =        1696.7522     RCH_MSW                          

            TOTAL IN =      956168.6913              TOTAL IN =        3174.9971

          OUT:                                     OUT:
          ----                                     ----
              STO-SS =      125462.2043                STO-SS =         655.7293     STORAGE                          
                 WEL =      242533.4445                   WEL =         857.6071     RIV_CORR                         
                 DRN =       62863.8176                   DRN =         239.9728     DRN_SYS1                         
                 RIV =      232296.2672                   RIV =         776.4663     RIV_SYS1                         
                 RIV =      169841.8283                   RIV =         645.2313     RIV_SYS2                         
                 RCH =      123174.1971                   RCH =           0.0000     RCH_MSW                          

           TOTAL OUT =      956171.7591             TOTAL OUT =        3175.0068

            IN - OUT =          -3.0678              IN - OUT =      -9.6650E-03

 PERCENT DISCREPANCY =          -0.00     PERCENT DISCREPANCY =          -0.00




         TIME SUMMARY AT END OF TIME STEP    1 IN STRESS PERIOD  252
                    SECONDS     MINUTES      HOURS       DAYS        YEARS
                    -----------------------------------------------------------
   TIME STEP LENGTH  86400.      1440.0      24.000      1.0000     2.73785E-03
 STRESS PERIOD TIME  86400.      1440.0      24.000      1.0000     2.73785E-03
         TOTAL TIME 2.17728E+07 3.62880E+05  6048.0      252.00     0.68994    


end timestep


start timestep kper="253" kstp="1" mode="normal"

 #Stressperiod Save Options

 BEGIN READING OUTPUT CONTROL FOR STRESS PERIOD 253
      ALL TIME STEPS WILL BE SAVED
      ALL TIME STEPS WILL BE SAVED

 END READING OUTPUT CONTROL FOR STRESS PERIOD 253


 PROCESSING STORAGE PERIOD DATA
 END PROCESSING STORAGE PERIOD DATA


 STRESS PERIOD 253 IS TRANSIENT


 REUSING WELS FROM LAST STRESS PERIOD

 REUSING DRNS FROM LAST STRESS PERIOD

 REUSING RIVS FROM LAST STRESS PERIOD

 REUSING RIVS FROM LAST STRESS PERIOD

 REUSING RCHS FROM LAST STRESS PERIOD
 UBDSV06 SAVING              DRN IN MODEL GWF_1            PACKAGE GWF_1           CONNECTED TO MODEL GWF_1            PACKAGE DRN_SYS1         ON UNIT   1019 AT TIME STEP      1, STRESS PERIOD    253
 UBDSV06 SAVING              RIV IN MODEL GWF_1            PACKAGE GWF_1           CONNECTED TO MODEL GWF_1            PACKAGE RIV_SYS1         ON UNIT   1019 AT TIME STEP      1, STRESS PERIOD    253
 UBDSV06 SAVING              RIV IN MODEL GWF_1            PACKAGE GWF_1           CONNECTED TO MODEL GWF_1            PACKAGE RIV_SYS2         ON UNIT   1019 AT TIME STEP      1, STRESS PERIOD    253

 HEAD WILL BE SAVED ON UNIT 1018 AT END OF TIME STEP    1, STRESS PERIOD  253


  VOLUME BUDGET FOR ENTIRE MODEL AT END OF TIME STEP    1, STRESS PERIOD 253
  ---------------------------------------------------------------------------------------------------

     CUMULATIVE VOLUME      L**3       RATES FOR THIS TIME STEP      L**3/T          PACKAGE NAME    
     ------------------                 ------------------------                     ----------------

           IN:                                      IN:
           ---                                      ---
              STO-SS =      181366.0535                STO-SS =           0.0000     STORAGE                          
                 WEL =      242584.6574                   WEL =         757.2149     RIV_CORR                         
                 DRN =           0.0000                   DRN =           0.0000     DRN_SYS1                         
                 RIV =      235157.8812                   RIV =         433.3569     RIV_SYS1                         
                 RIV =           0.0000                   RIV =           0.0000     RIV_SYS2                         
                 RCH =      302592.0046                   RCH =        4341.3336     RCH_MSW                          

            TOTAL IN =      961700.5968              TOTAL IN =        5531.9054

          OUT:                                     OUT:
          ----                                     ----
              STO-SS =      127964.6332                STO-SS =        2502.4289     STORAGE                          
                 WEL =      243309.9108                   WEL =         776.4663     RIV_CORR                         
                 DRN =       63107.9748                   DRN =         244.1572     DRN_SYS1                         
                 RIV =      233650.1110                   RIV =        1353.8438     RIV_SYS1                         
                 RIV =      170496.8204                   RIV =         654.9921     RIV_SYS2                         
                 RCH =      123174.1971                   RCH =           0.0000     RCH_MSW                          

           TOTAL OUT =      961703.6473             TOTAL OUT =        5531.8882

            IN - OUT =          -3.0506              IN - OUT =       1.7212E-02

 PERCENT DISCREPANCY =          -0.00     PERCENT DISCREPANCY =           0.00




         TIME SUMMARY AT END OF TIME STEP    1 IN STRESS PERIOD  253
                    SECONDS     MINUTES      HOURS       DAYS        YEARS
                    -----------------------------------------------------------
   TIME STEP LENGTH  86400.      1440.0      24.000      1.0000     2.73785E-03
 STRESS PERIOD TIME  86400.      1440.0      24.000      1.0000     2.73785E-03
         TOTAL TIME 2.18592E+07 3.64320E+05  6072.0      253.00     0.69268    


end timestep


start timestep kper="254" kstp="1" mode="normal"

 #Stressperiod Save Options

 BEGIN READING OUTPUT CONTROL FOR STRESS PERIOD 254
      ALL TIME STEPS WILL BE SAVED
      ALL TIME STEPS WILL BE SAVED

 END READING OUTPUT CONTROL FOR STRESS PERIOD 254


 PROCESSING STORAGE PERIOD DATA
 END PROCESSING STORAGE PERIOD DATA


 STRESS PERIOD 254 IS TRANSIENT


 REUSING WELS FROM LAST STRESS PERIOD

 REUSING DRNS FROM LAST STRESS PERIOD

 REUSING RIVS FROM LAST STRESS PERIOD

 REUSING RIVS FROM LAST STRESS PERIOD

 REUSING RCHS FROM LAST STRESS PERIOD
 UBDSV06 SAVING              DRN IN MODEL GWF_1            PACKAGE GWF_1           CONNECTED TO MODEL GWF_1            PACKAGE DRN_SYS1         ON UNIT   1019 AT TIME STEP      1, STRESS PERIOD    254
 UBDSV06 SAVING              RIV IN MODEL GWF_1            PACKAGE GWF_1           CONNECTED TO MODEL GWF_1            PACKAGE RIV_SYS1         ON UNIT   1019 AT TIME STEP      1, STRESS PERIOD    254
 UBDSV06 SAVING              RIV IN MODEL GWF_1            PACKAGE GWF_1           CONNECTED TO MODEL GWF_1            PACKAGE RIV_SYS2         ON UNIT   1019 AT TIME STEP      1, STRESS PERIOD    254

 HEAD WILL BE SAVED ON UNIT 1018 AT END OF TIME STEP    1, STRESS PERIOD  254


  VOLUME BUDGET FOR ENTIRE MODEL AT END OF TIME STEP    1, STRESS PERIOD 254
  ---------------------------------------------------------------------------------------------------

     CUMULATIVE VOLUME      L**3       RATES FOR THIS TIME STEP      L**3/T          PACKAGE NAME    
     ------------------                 ------------------------                     ----------------

           IN:                                      IN:
           ---                                      ---
              STO-SS =      181496.9185                STO-SS =         130.8650     STORAGE                          
                 WEL =      243018.0143                   WEL =         433.3569     RIV_CORR                         
                 DRN =           0.0000                   DRN =           0.0000     DRN_SYS1                         
                 RIV =      235687.9600                   RIV =         530.0788     RIV_SYS1                         
                 RIV =           0.0000                   RIV =           0.0000     RIV_SYS2                         
                 RCH =      306684.1185                   RCH =        4092.1139     RCH_MSW                          

            TOTAL IN =      966887.0113              TOTAL IN =        5186.4145

          OUT:                                     OUT:
          ----                                     ----
              STO-SS =      129889.8615                STO-SS =        1925.2283     STORAGE                          
                 WEL =      244663.7546                   WEL =        1353.8438     RIV_CORR                         
                 DRN =       63357.1020                   DRN =         249.1272     DRN_SYS1                         
                 RIV =      234641.4698                   RIV =         991.3588     RIV_SYS1                         
                 RIV =      171163.6802                   RIV =         666.8598     RIV_SYS2                         
                 RCH =      123174.1971                   RCH =           0.0000     RCH_MSW                          

           TOTAL OUT =      966890.0652             TOTAL OUT =        5186.4179

            IN - OUT =          -3.0540              IN - OUT =      -3.4043E-03

 PERCENT DISCREPANCY =          -0.00     PERCENT DISCREPANCY =          -0.00




         TIME SUMMARY AT END OF TIME STEP    1 IN STRESS PERIOD  254
                    SECONDS     MINUTES      HOURS       DAYS        YEARS
                    -----------------------------------------------------------
   TIME STEP LENGTH  86400.      1440.0      24.000      1.0000     2.73785E-03
 STRESS PERIOD TIME  86400.      1440.0      24.000      1.0000     2.73785E-03
         TOTAL TIME 2.19456E+07 3.65760E+05  6096.0      254.00     0.69541    


end timestep


start timestep kper="255" kstp="1" mode="normal"

 #Stressperiod Save Options

 BEGIN READING OUTPUT CONTROL FOR STRESS PERIOD 255
      ALL TIME STEPS WILL BE SAVED
      ALL TIME STEPS WILL BE SAVED

 END READING OUTPUT CONTROL FOR STRESS PERIOD 255


 PROCESSING STORAGE PERIOD DATA
 END PROCESSING STORAGE PERIOD DATA


 STRESS PERIOD 255 IS TRANSIENT


 REUSING WELS FROM LAST STRESS PERIOD

 REUSING DRNS FROM LAST STRESS PERIOD

 REUSING RIVS FROM LAST STRESS PERIOD

 REUSING RIVS FROM LAST STRESS PERIOD

 REUSING RCHS FROM LAST STRESS PERIOD
 UBDSV06 SAVING              DRN IN MODEL GWF_1            PACKAGE GWF_1           CONNECTED TO MODEL GWF_1            PACKAGE DRN_SYS1         ON UNIT   1019 AT TIME STEP      1, STRESS PERIOD    255
 UBDSV06 SAVING              RIV IN MODEL GWF_1            PACKAGE GWF_1           CONNECTED TO MODEL GWF_1            PACKAGE RIV_SYS1         ON UNIT   1019 AT TIME STEP      1, STRESS PERIOD    255
 UBDSV06 SAVING              RIV IN MODEL GWF_1            PACKAGE GWF_1           CONNECTED TO MODEL GWF_1            PACKAGE RIV_SYS2         ON UNIT   1019 AT TIME STEP      1, STRESS PERIOD    255

 HEAD WILL BE SAVED ON UNIT 1018 AT END OF TIME STEP    1, STRESS PERIOD  255


  VOLUME BUDGET FOR ENTIRE MODEL AT END OF TIME STEP    1, STRESS PERIOD 255
  ---------------------------------------------------------------------------------------------------

     CUMULATIVE VOLUME      L**3       RATES FOR THIS TIME STEP      L**3/T          PACKAGE NAME    
     ------------------                 ------------------------                     ----------------

           IN:                                      IN:
           ---                                      ---
              STO-SS =      181496.9185                STO-SS =           0.0000     STORAGE                          
                 WEL =      243548.0931                   WEL =         530.0788     RIV_CORR                         
                 DRN =           0.0000                   DRN =           0.0000     DRN_SYS1                         
                 RIV =      236013.7923                   RIV =         325.8323     RIV_SYS1                         
                 RIV =           0.0000                   RIV =           0.0000     RIV_SYS2                         
                 RCH =      313856.4837                   RCH =        7172.3652     RCH_MSW                          

            TOTAL IN =      974915.2876              TOTAL IN =        8028.2763

          OUT:                                     OUT:
          ----                                     ----
              STO-SS =      134155.4862                STO-SS =        4265.6247     STORAGE                          
                 WEL =      245655.1134                   WEL =         991.3588     RIV_CORR                         
                 DRN =       63615.3968                   DRN =         258.2948     DRN_SYS1                         
                 RIV =      236465.2524                   RIV =        1823.7827     RIV_SYS1                         
                 RIV =      171852.8884                   RIV =         689.2081     RIV_SYS2                         
                 RCH =      123174.1971                   RCH =           0.0000     RCH_MSW                          

           TOTAL OUT =      974918.3343             TOTAL OUT =        8028.2691

            IN - OUT =          -3.0467              IN - OUT =       7.2591E-03

 PERCENT DISCREPANCY =          -0.00     PERCENT DISCREPANCY =           0.00




         TIME SUMMARY AT END OF TIME STEP    1 IN STRESS PERIOD  255
                    SECONDS     MINUTES      HOURS       DAYS        YEARS
                    -----------------------------------------------------------
   TIME STEP LENGTH  86400.      1440.0      24.000      1.0000     2.73785E-03
 STRESS PERIOD TIME  86400.      1440.0      24.000      1.0000     2.73785E-03
         TOTAL TIME 2.20320E+07 3.67200E+05  6120.0      255.00     0.69815    


end timestep


start timestep kper="256" kstp="1" mode="normal"

 #Stressperiod Save Options

 BEGIN READING OUTPUT CONTROL FOR STRESS PERIOD 256
      ALL TIME STEPS WILL BE SAVED
      ALL TIME STEPS WILL BE SAVED

 END READING OUTPUT CONTROL FOR STRESS PERIOD 256


 PROCESSING STORAGE PERIOD DATA
 END PROCESSING STORAGE PERIOD DATA


 STRESS PERIOD 256 IS TRANSIENT


 REUSING WELS FROM LAST STRESS PERIOD

 REUSING DRNS FROM LAST STRESS PERIOD

 REUSING RIVS FROM LAST STRESS PERIOD

 REUSING RIVS FROM LAST STRESS PERIOD

 REUSING RCHS FROM LAST STRESS PERIOD
 UBDSV06 SAVING              DRN IN MODEL GWF_1            PACKAGE GWF_1           CONNECTED TO MODEL GWF_1            PACKAGE DRN_SYS1         ON UNIT   1019 AT TIME STEP      1, STRESS PERIOD    256
 UBDSV06 SAVING              RIV IN MODEL GWF_1            PACKAGE GWF_1           CONNECTED TO MODEL GWF_1            PACKAGE RIV_SYS1         ON UNIT   1019 AT TIME STEP      1, STRESS PERIOD    256
 UBDSV06 SAVING              RIV IN MODEL GWF_1            PACKAGE GWF_1           CONNECTED TO MODEL GWF_1            PACKAGE RIV_SYS2         ON UNIT   1019 AT TIME STEP      1, STRESS PERIOD    256

 HEAD WILL BE SAVED ON UNIT 1018 AT END OF TIME STEP    1, STRESS PERIOD  256


  VOLUME BUDGET FOR ENTIRE MODEL AT END OF TIME STEP    1, STRESS PERIOD 256
  ---------------------------------------------------------------------------------------------------

     CUMULATIVE VOLUME      L**3       RATES FOR THIS TIME STEP      L**3/T          PACKAGE NAME    
     ------------------                 ------------------------                     ----------------

           IN:                                      IN:
           ---                                      ---
              STO-SS =      182736.7926                STO-SS =        1239.8741     STORAGE                          
                 WEL =      243873.9254                   WEL =         325.8323     RIV_CORR                         
                 DRN =           0.0000                   DRN =           0.0000     DRN_SYS1                         
                 RIV =      236844.4628                   RIV =         830.6705     RIV_SYS1                         
                 RIV =           0.0000                   RIV =           0.0000     RIV_SYS2                         
                 RCH =      316893.7999                   RCH =        3037.3162     RCH_MSW                          

            TOTAL IN =      980348.9808              TOTAL IN =        5433.6931

          OUT:                                     OUT:
          ----                                     ----
              STO-SS =      135548.7893                STO-SS =        1393.3031     STORAGE                          
                 WEL =      247478.8961                   WEL =        1823.7827     RIV_CORR                         
                 DRN =       63876.7996                   DRN =         261.4028     DRN_SYS1                         
                 RIV =      237461.6801                   RIV =         996.4277     RIV_SYS1                         
                 RIV =      172550.6189                   RIV =         697.7305     RIV_SYS2                         
                 RCH =      123435.2292                   RCH =         261.0321     RCH_MSW                          

           TOTAL OUT =      980352.0132             TOTAL OUT =        5433.6789

            IN - OUT =          -3.0324              IN - OUT =       1.4255E-02

 PERCENT DISCREPANCY =          -0.00     PERCENT DISCREPANCY =           0.00




         TIME SUMMARY AT END OF TIME STEP    1 IN STRESS PERIOD  256
                    SECONDS     MINUTES      HOURS       DAYS        YEARS
                    -----------------------------------------------------------
   TIME STEP LENGTH  86400.      1440.0      24.000      1.0000     2.73785E-03
 STRESS PERIOD TIME  86400.      1440.0      24.000      1.0000     2.73785E-03
         TOTAL TIME 2.21184E+07 3.68640E+05  6144.0      256.00     0.70089    


end timestep


start timestep kper="257" kstp="1" mode="normal"

 #Stressperiod Save Options

 BEGIN READING OUTPUT CONTROL FOR STRESS PERIOD 257
      ALL TIME STEPS WILL BE SAVED
      ALL TIME STEPS WILL BE SAVED

 END READING OUTPUT CONTROL FOR STRESS PERIOD 257


 PROCESSING STORAGE PERIOD DATA
 END PROCESSING STORAGE PERIOD DATA


 STRESS PERIOD 257 IS TRANSIENT


 REUSING WELS FROM LAST STRESS PERIOD

 REUSING DRNS FROM LAST STRESS PERIOD

 REUSING RIVS FROM LAST STRESS PERIOD

 REUSING RIVS FROM LAST STRESS PERIOD

 REUSING RCHS FROM LAST STRESS PERIOD
 UBDSV06 SAVING              DRN IN MODEL GWF_1            PACKAGE GWF_1           CONNECTED TO MODEL GWF_1            PACKAGE DRN_SYS1         ON UNIT   1019 AT TIME STEP      1, STRESS PERIOD    257
 UBDSV06 SAVING              RIV IN MODEL GWF_1            PACKAGE GWF_1           CONNECTED TO MODEL GWF_1            PACKAGE RIV_SYS1         ON UNIT   1019 AT TIME STEP      1, STRESS PERIOD    257
 UBDSV06 SAVING              RIV IN MODEL GWF_1            PACKAGE GWF_1           CONNECTED TO MODEL GWF_1            PACKAGE RIV_SYS2         ON UNIT   1019 AT TIME STEP      1, STRESS PERIOD    257

 HEAD WILL BE SAVED ON UNIT 1018 AT END OF TIME STEP    1, STRESS PERIOD  257


  VOLUME BUDGET FOR ENTIRE MODEL AT END OF TIME STEP    1, STRESS PERIOD 257
  ---------------------------------------------------------------------------------------------------

     CUMULATIVE VOLUME      L**3       RATES FOR THIS TIME STEP      L**3/T          PACKAGE NAME    
     ------------------                 ------------------------                     ----------------

           IN:                                      IN:
           ---                                      ---
              STO-SS =      182736.7926                STO-SS =           0.0000     STORAGE                          
                 WEL =      244704.5959                   WEL =         830.6705     RIV_CORR                         
                 DRN =           0.0000                   DRN =           0.0000     DRN_SYS1                         
                 RIV =      237039.1976                   RIV =         194.7347     RIV_SYS1                         
                 RIV =           0.0000                   RIV =           0.0000     RIV_SYS2                         
                 RCH =      329787.0656                   RCH =       12893.2656     RCH_MSW                          

            TOTAL IN =      994267.6516              TOTAL IN =       13918.6709

          OUT:                                     OUT:
          ----                                     ----
              STO-SS =      144623.6179                STO-SS =        9074.8286     STORAGE                          
                 WEL =      248475.3238                   WEL =         996.4277     RIV_CORR                         
                 DRN =       64155.5209                   DRN =         278.7213     DRN_SYS1                         
                 RIV =      240289.5146                   RIV =        2827.8345     RIV_SYS1                         
                 RIV =      173291.4915                   RIV =         740.8726     RIV_SYS2                         
                 RCH =      123435.2292                   RCH =           0.0000     RCH_MSW                          

           TOTAL OUT =      994270.6978             TOTAL OUT =       13918.6846

            IN - OUT =          -3.0462              IN - OUT =      -1.3767E-02

 PERCENT DISCREPANCY =          -0.00     PERCENT DISCREPANCY =          -0.00




         TIME SUMMARY AT END OF TIME STEP    1 IN STRESS PERIOD  257
                    SECONDS     MINUTES      HOURS       DAYS        YEARS
                    -----------------------------------------------------------
   TIME STEP LENGTH  86400.      1440.0      24.000      1.0000     2.73785E-03
 STRESS PERIOD TIME  86400.      1440.0      24.000      1.0000     2.73785E-03
         TOTAL TIME 2.22048E+07 3.70080E+05  6168.0      257.00     0.70363    


end timestep


start timestep kper="258" kstp="1" mode="normal"

 #Stressperiod Save Options

 BEGIN READING OUTPUT CONTROL FOR STRESS PERIOD 258
      ALL TIME STEPS WILL BE SAVED
      ALL TIME STEPS WILL BE SAVED

 END READING OUTPUT CONTROL FOR STRESS PERIOD 258


 PROCESSING STORAGE PERIOD DATA
 END PROCESSING STORAGE PERIOD DATA


 STRESS PERIOD 258 IS TRANSIENT


 REUSING WELS FROM LAST STRESS PERIOD

 REUSING DRNS FROM LAST STRESS PERIOD

 REUSING RIVS FROM LAST STRESS PERIOD

 REUSING RIVS FROM LAST STRESS PERIOD

 REUSING RCHS FROM LAST STRESS PERIOD
 UBDSV06 SAVING              DRN IN MODEL GWF_1            PACKAGE GWF_1           CONNECTED TO MODEL GWF_1            PACKAGE DRN_SYS1         ON UNIT   1019 AT TIME STEP      1, STRESS PERIOD    258
 UBDSV06 SAVING              RIV IN MODEL GWF_1            PACKAGE GWF_1           CONNECTED TO MODEL GWF_1            PACKAGE RIV_SYS1         ON UNIT   1019 AT TIME STEP      1, STRESS PERIOD    258
 UBDSV06 SAVING              RIV IN MODEL GWF_1            PACKAGE GWF_1           CONNECTED TO MODEL GWF_1            PACKAGE RIV_SYS2         ON UNIT   1019 AT TIME STEP      1, STRESS PERIOD    258

 HEAD WILL BE SAVED ON UNIT 1018 AT END OF TIME STEP    1, STRESS PERIOD  258


  VOLUME BUDGET FOR ENTIRE MODEL AT END OF TIME STEP    1, STRESS PERIOD 258
  ---------------------------------------------------------------------------------------------------

     CUMULATIVE VOLUME      L**3       RATES FOR THIS TIME STEP      L**3/T          PACKAGE NAME    
     ------------------                 ------------------------                     ----------------

           IN:                                      IN:
           ---                                      ---
              STO-SS =      183896.4044                STO-SS =        1159.6118     STORAGE                          
                 WEL =      244899.3306                   WEL =         194.7347     RIV_CORR                         
                 DRN =           0.0000                   DRN =           0.0000     DRN_SYS1                         
                 RIV =      237252.3724                   RIV =         213.1748     RIV_SYS1                         
                 RIV =           0.0000                   RIV =           0.0000     RIV_SYS2                         
                 RCH =      343563.2567                   RCH =       13776.1911     RCH_MSW                          

            TOTAL IN =     1009611.3640              TOTAL IN =       15343.7124

          OUT:                                     OUT:
          ----                                     ----
              STO-SS =      152480.5999                STO-SS =        7856.9820     STORAGE                          
                 WEL =      251303.1582                   WEL =        2827.8345     RIV_CORR                         
                 DRN =       64456.2086                   DRN =         300.6877     DRN_SYS1                         
                 RIV =      242772.8870                   RIV =        2483.3724     RIV_SYS1                         
                 RIV =      174089.8456                   RIV =         798.3541     RIV_SYS2                         
                 RCH =      124511.6641                   RCH =        1076.4349     RCH_MSW                          

           TOTAL OUT =     1009614.3634             TOTAL OUT =       15343.6656

            IN - OUT =          -2.9993              IN - OUT =       4.6875E-02

 PERCENT DISCREPANCY =          -0.00     PERCENT DISCREPANCY =           0.00




         TIME SUMMARY AT END OF TIME STEP    1 IN STRESS PERIOD  258
                    SECONDS     MINUTES      HOURS       DAYS        YEARS
                    -----------------------------------------------------------
   TIME STEP LENGTH  86400.      1440.0      24.000      1.0000     2.73785E-03
 STRESS PERIOD TIME  86400.      1440.0      24.000      1.0000     2.73785E-03
         TOTAL TIME 2.22912E+07 3.71520E+05  6192.0      258.00     0.70637    


end timestep


start timestep kper="259" kstp="1" mode="normal"

 #Stressperiod Save Options

 BEGIN READING OUTPUT CONTROL FOR STRESS PERIOD 259
      ALL TIME STEPS WILL BE SAVED
      ALL TIME STEPS WILL BE SAVED

 END READING OUTPUT CONTROL FOR STRESS PERIOD 259


 PROCESSING STORAGE PERIOD DATA
 END PROCESSING STORAGE PERIOD DATA


 STRESS PERIOD 259 IS TRANSIENT


 REUSING WELS FROM LAST STRESS PERIOD

 REUSING DRNS FROM LAST STRESS PERIOD

 REUSING RIVS FROM LAST STRESS PERIOD

 REUSING RIVS FROM LAST STRESS PERIOD

 REUSING RCHS FROM LAST STRESS PERIOD
 UBDSV06 SAVING              DRN IN MODEL GWF_1            PACKAGE GWF_1           CONNECTED TO MODEL GWF_1            PACKAGE DRN_SYS1         ON UNIT   1019 AT TIME STEP      1, STRESS PERIOD    259
 UBDSV06 SAVING              RIV IN MODEL GWF_1            PACKAGE GWF_1           CONNECTED TO MODEL GWF_1            PACKAGE RIV_SYS1         ON UNIT   1019 AT TIME STEP      1, STRESS PERIOD    259
 UBDSV06 SAVING              RIV IN MODEL GWF_1            PACKAGE GWF_1           CONNECTED TO MODEL GWF_1            PACKAGE RIV_SYS2         ON UNIT   1019 AT TIME STEP      1, STRESS PERIOD    259

 HEAD WILL BE SAVED ON UNIT 1018 AT END OF TIME STEP    1, STRESS PERIOD  259


  VOLUME BUDGET FOR ENTIRE MODEL AT END OF TIME STEP    1, STRESS PERIOD 259
  ---------------------------------------------------------------------------------------------------

     CUMULATIVE VOLUME      L**3       RATES FOR THIS TIME STEP      L**3/T          PACKAGE NAME    
     ------------------                 ------------------------                     ----------------

           IN:                                      IN:
           ---                                      ---
              STO-SS =      183927.8800                STO-SS =          31.4756     STORAGE                          
                 WEL =      245112.5054                   WEL =         213.1748     RIV_CORR                         
                 DRN =           0.0000                   DRN =           0.0000     DRN_SYS1                         
                 RIV =      237426.8094                   RIV =         174.4370     RIV_SYS1                         
                 RIV =           0.0000                   RIV =           0.0000     RIV_SYS2                         
                 RCH =      356065.0573                   RCH =       12501.8006     RCH_MSW                          

            TOTAL IN =     1022532.2520              TOTAL IN =       12920.8880

          OUT:                                     OUT:
          ----                                     ----
              STO-SS =      158825.4375                STO-SS =        6344.8376     STORAGE                          
                 WEL =      253786.5307                   WEL =        2483.3724     RIV_CORR                         
                 DRN =       64773.4828                   DRN =         317.2742     DRN_SYS1                         
                 RIV =      245642.2400                   RIV =        2869.3529     RIV_SYS1                         
                 RIV =      174933.6498                   RIV =         843.8042     RIV_SYS2                         
                 RCH =      124573.9361                   RCH =          62.2720     RCH_MSW                          

           TOTAL OUT =     1022535.2767             TOTAL OUT =       12920.9134

            IN - OUT =          -3.0247              IN - OUT =      -2.5390E-02

 PERCENT DISCREPANCY =          -0.00     PERCENT DISCREPANCY =          -0.00




         TIME SUMMARY AT END OF TIME STEP    1 IN STRESS PERIOD  259
                    SECONDS     MINUTES      HOURS       DAYS        YEARS
                    -----------------------------------------------------------
   TIME STEP LENGTH  86400.      1440.0      24.000      1.0000     2.73785E-03
 STRESS PERIOD TIME  86400.      1440.0      24.000      1.0000     2.73785E-03
         TOTAL TIME 2.23776E+07 3.72960E+05  6216.0      259.00     0.70910    


end timestep


start timestep kper="260" kstp="1" mode="normal"

 #Stressperiod Save Options

 BEGIN READING OUTPUT CONTROL FOR STRESS PERIOD 260
      ALL TIME STEPS WILL BE SAVED
      ALL TIME STEPS WILL BE SAVED

 END READING OUTPUT CONTROL FOR STRESS PERIOD 260


 PROCESSING STORAGE PERIOD DATA
 END PROCESSING STORAGE PERIOD DATA


 STRESS PERIOD 260 IS TRANSIENT


 REUSING WELS FROM LAST STRESS PERIOD

 REUSING DRNS FROM LAST STRESS PERIOD

 REUSING RIVS FROM LAST STRESS PERIOD

 REUSING RIVS FROM LAST STRESS PERIOD

 REUSING RCHS FROM LAST STRESS PERIOD
 UBDSV06 SAVING              DRN IN MODEL GWF_1            PACKAGE GWF_1           CONNECTED TO MODEL GWF_1            PACKAGE DRN_SYS1         ON UNIT   1019 AT TIME STEP      1, STRESS PERIOD    260
 UBDSV06 SAVING              RIV IN MODEL GWF_1            PACKAGE GWF_1           CONNECTED TO MODEL GWF_1            PACKAGE RIV_SYS1         ON UNIT   1019 AT TIME STEP      1, STRESS PERIOD    260
 UBDSV06 SAVING              RIV IN MODEL GWF_1            PACKAGE GWF_1           CONNECTED TO MODEL GWF_1            PACKAGE RIV_SYS2         ON UNIT   1019 AT TIME STEP      1, STRESS PERIOD    260

 HEAD WILL BE SAVED ON UNIT 1018 AT END OF TIME STEP    1, STRESS PERIOD  260


  VOLUME BUDGET FOR ENTIRE MODEL AT END OF TIME STEP    1, STRESS PERIOD 260
  ---------------------------------------------------------------------------------------------------

     CUMULATIVE VOLUME      L**3       RATES FOR THIS TIME STEP      L**3/T          PACKAGE NAME    
     ------------------                 ------------------------                     ----------------

           IN:                                      IN:
           ---                                      ---
              STO-SS =      184028.3948                STO-SS =         100.5148     STORAGE                          
                 WEL =      245286.9424                   WEL =         174.4370     RIV_CORR                         
                 DRN =           0.0000                   DRN =           0.0000     DRN_SYS1                         
                 RIV =      237583.8074                   RIV =         156.9980     RIV_SYS1                         
                 RIV =           0.0000                   RIV =           0.0000     RIV_SYS2                         
                 RCH =      368509.9910                   RCH =       12444.9337     RCH_MSW                          

            TOTAL IN =     1035409.1356              TOTAL IN =       12876.8835

          OUT:                                     OUT:
          ----                                     ----
              STO-SS =      164552.1836                STO-SS =        5726.7461     STORAGE                          
                 WEL =      256655.8836                   WEL =        2869.3529     RIV_CORR                         
                 DRN =       65105.3376                   DRN =         331.8548     DRN_SYS1                         
                 RIV =      248498.9733                   RIV =        2856.7334     RIV_SYS1                         
                 RIV =      175817.1503                   RIV =         883.5005     RIV_SYS2                         
                 RCH =      124782.6241                   RCH =         208.6880     RCH_MSW                          

           TOTAL OUT =     1035412.1524             TOTAL OUT =       12876.8757

            IN - OUT =          -3.0169              IN - OUT =       7.8676E-03

 PERCENT DISCREPANCY =          -0.00     PERCENT DISCREPANCY =           0.00




         TIME SUMMARY AT END OF TIME STEP    1 IN STRESS PERIOD  260
                    SECONDS     MINUTES      HOURS       DAYS        YEARS
                    -----------------------------------------------------------
   TIME STEP LENGTH  86400.      1440.0      24.000      1.0000     2.73785E-03
 STRESS PERIOD TIME  86400.      1440.0      24.000      1.0000     2.73785E-03
         TOTAL TIME 2.24640E+07 3.74400E+05  6240.0      260.00     0.71184    


end timestep


start timestep kper="261" kstp="1" mode="normal"

 #Stressperiod Save Options

 BEGIN READING OUTPUT CONTROL FOR STRESS PERIOD 261
      ALL TIME STEPS WILL BE SAVED
      ALL TIME STEPS WILL BE SAVED

 END READING OUTPUT CONTROL FOR STRESS PERIOD 261


 PROCESSING STORAGE PERIOD DATA
 END PROCESSING STORAGE PERIOD DATA


 STRESS PERIOD 261 IS TRANSIENT


 REUSING WELS FROM LAST STRESS PERIOD

 REUSING DRNS FROM LAST STRESS PERIOD

 REUSING RIVS FROM LAST STRESS PERIOD

 REUSING RIVS FROM LAST STRESS PERIOD

 REUSING RCHS FROM LAST STRESS PERIOD
 UBDSV06 SAVING              DRN IN MODEL GWF_1            PACKAGE GWF_1           CONNECTED TO MODEL GWF_1            PACKAGE DRN_SYS1         ON UNIT   1019 AT TIME STEP      1, STRESS PERIOD    261
 UBDSV06 SAVING              RIV IN MODEL GWF_1            PACKAGE GWF_1           CONNECTED TO MODEL GWF_1            PACKAGE RIV_SYS1         ON UNIT   1019 AT TIME STEP      1, STRESS PERIOD    261
 UBDSV06 SAVING              RIV IN MODEL GWF_1            PACKAGE GWF_1           CONNECTED TO MODEL GWF_1            PACKAGE RIV_SYS2         ON UNIT   1019 AT TIME STEP      1, STRESS PERIOD    261

 HEAD WILL BE SAVED ON UNIT 1018 AT END OF TIME STEP    1, STRESS PERIOD  261


  VOLUME BUDGET FOR ENTIRE MODEL AT END OF TIME STEP    1, STRESS PERIOD 261
  ---------------------------------------------------------------------------------------------------

     CUMULATIVE VOLUME      L**3       RATES FOR THIS TIME STEP      L**3/T          PACKAGE NAME    
     ------------------                 ------------------------                     ----------------

           IN:                                      IN:
           ---                                      ---
              STO-SS =      186604.3232                STO-SS =        2575.9284     STORAGE                          
                 WEL =      245443.9404                   WEL =         156.9980     RIV_CORR                         
                 DRN =           0.0000                   DRN =           0.0000     DRN_SYS1                         
                 RIV =      237848.7180                   RIV =         264.9107     RIV_SYS1                         
                 RIV =           0.0000                   RIV =           0.0000     RIV_SYS2                         
                 RCH =      372939.0763                   RCH =        4429.0853     RCH_MSW                          

            TOTAL IN =     1042836.0580              TOTAL IN =        7426.9225

          OUT:                                     OUT:
          ----                                     ----
              STO-SS =      165536.6278                STO-SS =         984.4442     STORAGE                          
                 WEL =      259512.6170                   WEL =        2856.7334     RIV_CORR                         
                 DRN =       65434.6035                   DRN =         329.2659     DRN_SYS1                         
                 RIV =      250560.0742                   RIV =        2061.1008     RIV_SYS1                         
                 RIV =      176697.5740                   RIV =         880.4237     RIV_SYS2                         
                 RCH =      125097.5848                   RCH =         314.9608     RCH_MSW                          

           TOTAL OUT =     1042839.0812             TOTAL OUT =        7426.9288

            IN - OUT =          -3.0232              IN - OUT =      -6.3149E-03

 PERCENT DISCREPANCY =          -0.00     PERCENT DISCREPANCY =          -0.00




         TIME SUMMARY AT END OF TIME STEP    1 IN STRESS PERIOD  261
                    SECONDS     MINUTES      HOURS       DAYS        YEARS
                    -----------------------------------------------------------
   TIME STEP LENGTH  86400.      1440.0      24.000      1.0000     2.73785E-03
 STRESS PERIOD TIME  86400.      1440.0      24.000      1.0000     2.73785E-03
         TOTAL TIME 2.25504E+07 3.75840E+05  6264.0      261.00     0.71458    


end timestep


start timestep kper="262" kstp="1" mode="normal"

 #Stressperiod Save Options

 BEGIN READING OUTPUT CONTROL FOR STRESS PERIOD 262
      ALL TIME STEPS WILL BE SAVED
      ALL TIME STEPS WILL BE SAVED

 END READING OUTPUT CONTROL FOR STRESS PERIOD 262


 PROCESSING STORAGE PERIOD DATA
 END PROCESSING STORAGE PERIOD DATA


 STRESS PERIOD 262 IS TRANSIENT


 REUSING WELS FROM LAST STRESS PERIOD

 REUSING DRNS FROM LAST STRESS PERIOD

 REUSING RIVS FROM LAST STRESS PERIOD

 REUSING RIVS FROM LAST STRESS PERIOD

 REUSING RCHS FROM LAST STRESS PERIOD
 UBDSV06 SAVING              DRN IN MODEL GWF_1            PACKAGE GWF_1           CONNECTED TO MODEL GWF_1            PACKAGE DRN_SYS1         ON UNIT   1019 AT TIME STEP      1, STRESS PERIOD    262
 UBDSV06 SAVING              RIV IN MODEL GWF_1            PACKAGE GWF_1           CONNECTED TO MODEL GWF_1            PACKAGE RIV_SYS1         ON UNIT   1019 AT TIME STEP      1, STRESS PERIOD    262
 UBDSV06 SAVING              RIV IN MODEL GWF_1            PACKAGE GWF_1           CONNECTED TO MODEL GWF_1            PACKAGE RIV_SYS2         ON UNIT   1019 AT TIME STEP      1, STRESS PERIOD    262

 HEAD WILL BE SAVED ON UNIT 1018 AT END OF TIME STEP    1, STRESS PERIOD  262


  VOLUME BUDGET FOR ENTIRE MODEL AT END OF TIME STEP    1, STRESS PERIOD 262
  ---------------------------------------------------------------------------------------------------

     CUMULATIVE VOLUME      L**3       RATES FOR THIS TIME STEP      L**3/T          PACKAGE NAME    
     ------------------                 ------------------------                     ----------------

           IN:                                      IN:
           ---                                      ---
              STO-SS =      188400.2622                STO-SS =        1795.9390     STORAGE                          
                 WEL =      245708.8511                   WEL =         264.9107     RIV_CORR                         
                 DRN =           0.0000                   DRN =           0.0000     DRN_SYS1                         
                 RIV =      238101.4193                   RIV =         252.7013     RIV_SYS1                         
                 RIV =           0.0000                   RIV =           0.0000     RIV_SYS2                         
                 RCH =      376159.1324                   RCH =        3220.0561     RCH_MSW                          

            TOTAL IN =     1048369.6650              TOTAL IN =        5533.6070

          OUT:                                     OUT:
          ----                                     ----
              STO-SS =      165794.4759                STO-SS =         257.8481     STORAGE                          
                 WEL =      261573.7178                   WEL =        2061.1008     RIV_CORR                         
                 DRN =       65759.6199                   DRN =         325.0165     DRN_SYS1                         
                 RIV =      252580.3598                   RIV =        2020.2857     RIV_SYS1                         
                 RIV =      177567.0280                   RIV =         869.4541     RIV_SYS2                         
                 RCH =      125097.5848                   RCH =           0.0000     RCH_MSW                          

           TOTAL OUT =     1048372.7863             TOTAL OUT =        5533.7051

            IN - OUT =          -3.1213              IN - OUT =      -9.8126E-02

 PERCENT DISCREPANCY =          -0.00     PERCENT DISCREPANCY =          -0.00




         TIME SUMMARY AT END OF TIME STEP    1 IN STRESS PERIOD  262
                    SECONDS     MINUTES      HOURS       DAYS        YEARS
                    -----------------------------------------------------------
   TIME STEP LENGTH  86400.      1440.0      24.000      1.0000     2.73785E-03
 STRESS PERIOD TIME  86400.      1440.0      24.000      1.0000     2.73785E-03
         TOTAL TIME 2.26368E+07 3.77280E+05  6288.0      262.00     0.71732    


end timestep


start timestep kper="263" kstp="1" mode="normal"

 #Stressperiod Save Options

 BEGIN READING OUTPUT CONTROL FOR STRESS PERIOD 263
      ALL TIME STEPS WILL BE SAVED
      ALL TIME STEPS WILL BE SAVED

 END READING OUTPUT CONTROL FOR STRESS PERIOD 263


 PROCESSING STORAGE PERIOD DATA
 END PROCESSING STORAGE PERIOD DATA


 STRESS PERIOD 263 IS TRANSIENT


 REUSING WELS FROM LAST STRESS PERIOD

 REUSING DRNS FROM LAST STRESS PERIOD

 REUSING RIVS FROM LAST STRESS PERIOD

 REUSING RIVS FROM LAST STRESS PERIOD

 REUSING RCHS FROM LAST STRESS PERIOD
 UBDSV06 SAVING              DRN IN MODEL GWF_1            PACKAGE GWF_1           CONNECTED TO MODEL GWF_1            PACKAGE DRN_SYS1         ON UNIT   1019 AT TIME STEP      1, STRESS PERIOD    263
 UBDSV06 SAVING              RIV IN MODEL GWF_1            PACKAGE GWF_1           CONNECTED TO MODEL GWF_1            PACKAGE RIV_SYS1         ON UNIT   1019 AT TIME STEP      1, STRESS PERIOD    263
 UBDSV06 SAVING              RIV IN MODEL GWF_1            PACKAGE GWF_1           CONNECTED TO MODEL GWF_1            PACKAGE RIV_SYS2         ON UNIT   1019 AT TIME STEP      1, STRESS PERIOD    263

 HEAD WILL BE SAVED ON UNIT 1018 AT END OF TIME STEP    1, STRESS PERIOD  263


  VOLUME BUDGET FOR ENTIRE MODEL AT END OF TIME STEP    1, STRESS PERIOD 263
  ---------------------------------------------------------------------------------------------------

     CUMULATIVE VOLUME      L**3       RATES FOR THIS TIME STEP      L**3/T          PACKAGE NAME    
     ------------------                 ------------------------                     ----------------

           IN:                                      IN:
           ---                                      ---
              STO-SS =      188400.2622                STO-SS =           0.0000     STORAGE                          
                 WEL =      245961.5524                   WEL =         252.7013     RIV_CORR                         
                 DRN =           0.0000                   DRN =           0.0000     DRN_SYS1                         
                 RIV =      238236.1872                   RIV =         134.7679     RIV_SYS1                         
                 RIV =           0.0000                   RIV =           0.0000     RIV_SYS2                         
                 RCH =      387305.8695                   RCH =       11146.7372     RCH_MSW                          

            TOTAL IN =     1059903.8714              TOTAL IN =       11534.2064

          OUT:                                     OUT:
          ----                                     ----
              STO-SS =      171064.7749                STO-SS =        5270.2990     STORAGE                          
                 WEL =      263594.0035                   WEL =        2020.2857     RIV_CORR                         
                 DRN =       66095.0310                   DRN =         335.4110     DRN_SYS1                         
                 RIV =      255597.7301                   RIV =        3017.3702     RIV_SYS1                         
                 RIV =      178457.8845                   RIV =         890.8565     RIV_SYS2                         
                 RCH =      125097.5848                   RCH =           0.0000     RCH_MSW                          

           TOTAL OUT =     1059907.0087             TOTAL OUT =       11534.2224

            IN - OUT =          -3.1373              IN - OUT =      -1.6006E-02

 PERCENT DISCREPANCY =          -0.00     PERCENT DISCREPANCY =          -0.00




         TIME SUMMARY AT END OF TIME STEP    1 IN STRESS PERIOD  263
                    SECONDS     MINUTES      HOURS       DAYS        YEARS
                    -----------------------------------------------------------
   TIME STEP LENGTH  86400.      1440.0      24.000      1.0000     2.73785E-03
 STRESS PERIOD TIME  86400.      1440.0      24.000      1.0000     2.73785E-03
         TOTAL TIME 2.27232E+07 3.78720E+05  6312.0      263.00     0.72005    


end timestep


start timestep kper="264" kstp="1" mode="normal"

 #Stressperiod Save Options

 BEGIN READING OUTPUT CONTROL FOR STRESS PERIOD 264
      ALL TIME STEPS WILL BE SAVED
      ALL TIME STEPS WILL BE SAVED

 END READING OUTPUT CONTROL FOR STRESS PERIOD 264


 PROCESSING STORAGE PERIOD DATA
 END PROCESSING STORAGE PERIOD DATA


 STRESS PERIOD 264 IS TRANSIENT


 REUSING WELS FROM LAST STRESS PERIOD

 REUSING DRNS FROM LAST STRESS PERIOD

 REUSING RIVS FROM LAST STRESS PERIOD

 REUSING RIVS FROM LAST STRESS PERIOD

 REUSING RCHS FROM LAST STRESS PERIOD
 UBDSV06 SAVING              DRN IN MODEL GWF_1            PACKAGE GWF_1           CONNECTED TO MODEL GWF_1            PACKAGE DRN_SYS1         ON UNIT   1019 AT TIME STEP      1, STRESS PERIOD    264
 UBDSV06 SAVING              RIV IN MODEL GWF_1            PACKAGE GWF_1           CONNECTED TO MODEL GWF_1            PACKAGE RIV_SYS1         ON UNIT   1019 AT TIME STEP      1, STRESS PERIOD    264
 UBDSV06 SAVING              RIV IN MODEL GWF_1            PACKAGE GWF_1           CONNECTED TO MODEL GWF_1            PACKAGE RIV_SYS2         ON UNIT   1019 AT TIME STEP      1, STRESS PERIOD    264

 HEAD WILL BE SAVED ON UNIT 1018 AT END OF TIME STEP    1, STRESS PERIOD  264


  VOLUME BUDGET FOR ENTIRE MODEL AT END OF TIME STEP    1, STRESS PERIOD 264
  ---------------------------------------------------------------------------------------------------

     CUMULATIVE VOLUME      L**3       RATES FOR THIS TIME STEP      L**3/T          PACKAGE NAME    
     ------------------                 ------------------------                     ----------------

           IN:                                      IN:
           ---                                      ---
              STO-SS =      192380.6019                STO-SS =        3980.3397     STORAGE                          
                 WEL =      246096.3203                   WEL =         134.7679     RIV_CORR                         
                 DRN =           0.0000                   DRN =           0.0000     DRN_SYS1                         
                 RIV =      238656.3444                   RIV =         420.1571     RIV_SYS1                         
                 RIV =           0.0000                   RIV =           0.0000     RIV_SYS2                         
                 RCH =      390105.2332                   RCH =        2799.3636     RCH_MSW                          

            TOTAL IN =     1067238.4997              TOTAL IN =        7334.6283

          OUT:                                     OUT:
          ----                                     ----
              STO-SS =      171169.3211                STO-SS =         104.5462     STORAGE                          
                 WEL =      266611.3737                   WEL =        3017.3702     RIV_CORR                         
                 DRN =       66425.3692                   DRN =         330.3383     DRN_SYS1                         
                 RIV =      257306.1858                   RIV =        1708.4558     RIV_SYS1                         
                 RIV =      179339.3860                   RIV =         881.5016     RIV_SYS2                         
                 RCH =      126389.9960                   RCH =        1292.4111     RCH_MSW                          

           TOTAL OUT =     1067241.6319             TOTAL OUT =        7334.6232

            IN - OUT =          -3.1322              IN - OUT =       5.1411E-03

 PERCENT DISCREPANCY =          -0.00     PERCENT DISCREPANCY =           0.00




         TIME SUMMARY AT END OF TIME STEP    1 IN STRESS PERIOD  264
                    SECONDS     MINUTES      HOURS       DAYS        YEARS
                    -----------------------------------------------------------
   TIME STEP LENGTH  86400.      1440.0      24.000      1.0000     2.73785E-03
 STRESS PERIOD TIME  86400.      1440.0      24.000      1.0000     2.73785E-03
         TOTAL TIME 2.28096E+07 3.80160E+05  6336.0      264.00     0.72279    


end timestep


start timestep kper="265" kstp="1" mode="normal"

 #Stressperiod Save Options

 BEGIN READING OUTPUT CONTROL FOR STRESS PERIOD 265
      ALL TIME STEPS WILL BE SAVED
      ALL TIME STEPS WILL BE SAVED

 END READING OUTPUT CONTROL FOR STRESS PERIOD 265


 PROCESSING STORAGE PERIOD DATA
 END PROCESSING STORAGE PERIOD DATA


 STRESS PERIOD 265 IS TRANSIENT


 REUSING WELS FROM LAST STRESS PERIOD

 REUSING DRNS FROM LAST STRESS PERIOD

 REUSING RIVS FROM LAST STRESS PERIOD

 REUSING RIVS FROM LAST STRESS PERIOD

 REUSING RCHS FROM LAST STRESS PERIOD
 UBDSV06 SAVING              DRN IN MODEL GWF_1            PACKAGE GWF_1           CONNECTED TO MODEL GWF_1            PACKAGE DRN_SYS1         ON UNIT   1019 AT TIME STEP      1, STRESS PERIOD    265
 UBDSV06 SAVING              RIV IN MODEL GWF_1            PACKAGE GWF_1           CONNECTED TO MODEL GWF_1            PACKAGE RIV_SYS1         ON UNIT   1019 AT TIME STEP      1, STRESS PERIOD    265
 UBDSV06 SAVING              RIV IN MODEL GWF_1            PACKAGE GWF_1           CONNECTED TO MODEL GWF_1            PACKAGE RIV_SYS2         ON UNIT   1019 AT TIME STEP      1, STRESS PERIOD    265

 HEAD WILL BE SAVED ON UNIT 1018 AT END OF TIME STEP    1, STRESS PERIOD  265


  VOLUME BUDGET FOR ENTIRE MODEL AT END OF TIME STEP    1, STRESS PERIOD 265
  ---------------------------------------------------------------------------------------------------

     CUMULATIVE VOLUME      L**3       RATES FOR THIS TIME STEP      L**3/T          PACKAGE NAME    
     ------------------                 ------------------------                     ----------------

           IN:                                      IN:
           ---                                      ---
              STO-SS =      195486.0819                STO-SS =        3105.4800     STORAGE                          
                 WEL =      246516.4774                   WEL =         420.1571     RIV_CORR                         
                 DRN =           0.0000                   DRN =           0.0000     DRN_SYS1                         
                 RIV =      238956.7625                   RIV =         300.4181     RIV_SYS1                         
                 RIV =           0.0000                   RIV =           0.0000     RIV_SYS2                         
                 RCH =      391386.1390                   RCH =        1280.9058     RCH_MSW                          

            TOTAL IN =     1072345.4608              TOTAL IN =        5106.9610

          OUT:                                     OUT:
          ----                                     ----
              STO-SS =      171231.0936                STO-SS =          61.7725     STORAGE                          
                 WEL =      268319.8295                   WEL =        1708.4558     RIV_CORR                         
                 DRN =       66748.5014                   DRN =         323.1322     DRN_SYS1                         
                 RIV =      259018.4219                   RIV =        1712.2360     RIV_SYS1                         
                 RIV =      180203.3937                   RIV =         864.0077     RIV_SYS2                         
                 RCH =      126827.3964                   RCH =         437.4004     RCH_MSW                          

           TOTAL OUT =     1072348.6365             TOTAL OUT =        5107.0046

            IN - OUT =          -3.1757              IN - OUT =      -4.3565E-02

 PERCENT DISCREPANCY =          -0.00     PERCENT DISCREPANCY =          -0.00




         TIME SUMMARY AT END OF TIME STEP    1 IN STRESS PERIOD  265
                    SECONDS     MINUTES      HOURS       DAYS        YEARS
                    -----------------------------------------------------------
   TIME STEP LENGTH  86400.      1440.0      24.000      1.0000     2.73785E-03
 STRESS PERIOD TIME  86400.      1440.0      24.000      1.0000     2.73785E-03
         TOTAL TIME 2.28960E+07 3.81600E+05  6360.0      265.00     0.72553    


end timestep


start timestep kper="266" kstp="1" mode="normal"

 #Stressperiod Save Options

 BEGIN READING OUTPUT CONTROL FOR STRESS PERIOD 266
      ALL TIME STEPS WILL BE SAVED
      ALL TIME STEPS WILL BE SAVED

 END READING OUTPUT CONTROL FOR STRESS PERIOD 266


 PROCESSING STORAGE PERIOD DATA
 END PROCESSING STORAGE PERIOD DATA


 STRESS PERIOD 266 IS TRANSIENT


 REUSING WELS FROM LAST STRESS PERIOD

 REUSING DRNS FROM LAST STRESS PERIOD

 REUSING RIVS FROM LAST STRESS PERIOD

 REUSING RIVS FROM LAST STRESS PERIOD

 REUSING RCHS FROM LAST STRESS PERIOD
 UBDSV06 SAVING              DRN IN MODEL GWF_1            PACKAGE GWF_1           CONNECTED TO MODEL GWF_1            PACKAGE DRN_SYS1         ON UNIT   1019 AT TIME STEP      1, STRESS PERIOD    266
 UBDSV06 SAVING              RIV IN MODEL GWF_1            PACKAGE GWF_1           CONNECTED TO MODEL GWF_1            PACKAGE RIV_SYS1         ON UNIT   1019 AT TIME STEP      1, STRESS PERIOD    266
 UBDSV06 SAVING              RIV IN MODEL GWF_1            PACKAGE GWF_1           CONNECTED TO MODEL GWF_1            PACKAGE RIV_SYS2         ON UNIT   1019 AT TIME STEP      1, STRESS PERIOD    266

 HEAD WILL BE SAVED ON UNIT 1018 AT END OF TIME STEP    1, STRESS PERIOD  266


  VOLUME BUDGET FOR ENTIRE MODEL AT END OF TIME STEP    1, STRESS PERIOD 266
  ---------------------------------------------------------------------------------------------------

     CUMULATIVE VOLUME      L**3       RATES FOR THIS TIME STEP      L**3/T          PACKAGE NAME    
     ------------------                 ------------------------                     ----------------

           IN:                                      IN:
           ---                                      ---
              STO-SS =      198995.2851                STO-SS =        3509.2032     STORAGE                          
                 WEL =      246816.8955                   WEL =         300.4181     RIV_CORR                         
                 DRN =           0.0000                   DRN =           0.0000     DRN_SYS1                         
                 RIV =      239386.6814                   RIV =         429.9189     RIV_SYS1                         
                 RIV =           0.0000                   RIV =           0.0000     RIV_SYS2                         
                 RCH =      392048.0082                   RCH =         661.8692     RCH_MSW                          

            TOTAL IN =     1077246.8702              TOTAL IN =        4901.4094

          OUT:                                     OUT:
          ----                                     ----
              STO-SS =      171231.0936                STO-SS =           0.0000     STORAGE                          
                 WEL =      270032.0655                   WEL =        1712.2360     RIV_CORR                         
                 DRN =       67064.4328                   DRN =         315.9313     DRN_SYS1                         
                 RIV =      260401.9822                   RIV =        1383.5603     RIV_SYS1                         
                 RIV =      181048.7690                   RIV =         845.3753     RIV_SYS2                         
                 RCH =      127471.6361                   RCH =         644.2397     RCH_MSW                          

           TOTAL OUT =     1077249.9792             TOTAL OUT =        4901.3427

            IN - OUT =          -3.1090              IN - OUT =       6.6740E-02

 PERCENT DISCREPANCY =          -0.00     PERCENT DISCREPANCY =           0.00




         TIME SUMMARY AT END OF TIME STEP    1 IN STRESS PERIOD  266
                    SECONDS     MINUTES      HOURS       DAYS        YEARS
                    -----------------------------------------------------------
   TIME STEP LENGTH  86400.      1440.0      24.000      1.0000     2.73785E-03
 STRESS PERIOD TIME  86400.      1440.0      24.000      1.0000     2.73785E-03
         TOTAL TIME 2.29824E+07 3.83040E+05  6384.0      266.00     0.72827    


end timestep


start timestep kper="267" kstp="1" mode="normal"

 #Stressperiod Save Options

 BEGIN READING OUTPUT CONTROL FOR STRESS PERIOD 267
      ALL TIME STEPS WILL BE SAVED
      ALL TIME STEPS WILL BE SAVED

 END READING OUTPUT CONTROL FOR STRESS PERIOD 267


 PROCESSING STORAGE PERIOD DATA
 END PROCESSING STORAGE PERIOD DATA


 STRESS PERIOD 267 IS TRANSIENT


 REUSING WELS FROM LAST STRESS PERIOD

 REUSING DRNS FROM LAST STRESS PERIOD

 REUSING RIVS FROM LAST STRESS PERIOD

 REUSING RIVS FROM LAST STRESS PERIOD

 REUSING RCHS FROM LAST STRESS PERIOD
 UBDSV06 SAVING              DRN IN MODEL GWF_1            PACKAGE GWF_1           CONNECTED TO MODEL GWF_1            PACKAGE DRN_SYS1         ON UNIT   1019 AT TIME STEP      1, STRESS PERIOD    267
 UBDSV06 SAVING              RIV IN MODEL GWF_1            PACKAGE GWF_1           CONNECTED TO MODEL GWF_1            PACKAGE RIV_SYS1         ON UNIT   1019 AT TIME STEP      1, STRESS PERIOD    267
 UBDSV06 SAVING              RIV IN MODEL GWF_1            PACKAGE GWF_1           CONNECTED TO MODEL GWF_1            PACKAGE RIV_SYS2         ON UNIT   1019 AT TIME STEP      1, STRESS PERIOD    267

 HEAD WILL BE SAVED ON UNIT 1018 AT END OF TIME STEP    1, STRESS PERIOD  267


  VOLUME BUDGET FOR ENTIRE MODEL AT END OF TIME STEP    1, STRESS PERIOD 267
  ---------------------------------------------------------------------------------------------------

     CUMULATIVE VOLUME      L**3       RATES FOR THIS TIME STEP      L**3/T          PACKAGE NAME    
     ------------------                 ------------------------                     ----------------

           IN:                                      IN:
           ---                                      ---
              STO-SS =      202064.3320                STO-SS =        3069.0469     STORAGE                          
                 WEL =      247246.8144                   WEL =         429.9189     RIV_CORR                         
                 DRN =           0.0000                   DRN =           0.0000     DRN_SYS1                         
                 RIV =      239750.9063                   RIV =         364.2249     RIV_SYS1                         
                 RIV =           0.0000                   RIV =           0.0000     RIV_SYS2                         
                 RCH =      392466.4853                   RCH =         418.4771     RCH_MSW                          

            TOTAL IN =     1081528.5380              TOTAL IN =        4281.6678

          OUT:                                     OUT:
          ----                                     ----
              STO-SS =      171262.4015                STO-SS =          31.3080     STORAGE                          
                 WEL =      271415.6258                   WEL =        1383.5603     RIV_CORR                         
                 DRN =       67373.9978                   DRN =         309.5650     DRN_SYS1                         
                 RIV =      261775.0932                   RIV =        1373.1110     RIV_SYS1                         
                 RIV =      181877.0393                   RIV =         828.2703     RIV_SYS2                         
                 RCH =      127827.4401                   RCH =         355.8040     RCH_MSW                          

           TOTAL OUT =     1081531.5978             TOTAL OUT =        4281.6186

            IN - OUT =          -3.0598              IN - OUT =       4.9191E-02

 PERCENT DISCREPANCY =          -0.00     PERCENT DISCREPANCY =           0.00




         TIME SUMMARY AT END OF TIME STEP    1 IN STRESS PERIOD  267
                    SECONDS     MINUTES      HOURS       DAYS        YEARS
                    -----------------------------------------------------------
   TIME STEP LENGTH  86400.      1440.0      24.000      1.0000     2.73785E-03
 STRESS PERIOD TIME  86400.      1440.0      24.000      1.0000     2.73785E-03
         TOTAL TIME 2.30688E+07 3.84480E+05  6408.0      267.00     0.73101    


end timestep


start timestep kper="268" kstp="1" mode="normal"

 #Stressperiod Save Options

 BEGIN READING OUTPUT CONTROL FOR STRESS PERIOD 268
      ALL TIME STEPS WILL BE SAVED
      ALL TIME STEPS WILL BE SAVED

 END READING OUTPUT CONTROL FOR STRESS PERIOD 268


 PROCESSING STORAGE PERIOD DATA
 END PROCESSING STORAGE PERIOD DATA


 STRESS PERIOD 268 IS TRANSIENT


 REUSING WELS FROM LAST STRESS PERIOD

 REUSING DRNS FROM LAST STRESS PERIOD

 REUSING RIVS FROM LAST STRESS PERIOD

 REUSING RIVS FROM LAST STRESS PERIOD

 REUSING RCHS FROM LAST STRESS PERIOD
 UBDSV06 SAVING              DRN IN MODEL GWF_1            PACKAGE GWF_1           CONNECTED TO MODEL GWF_1            PACKAGE DRN_SYS1         ON UNIT   1019 AT TIME STEP      1, STRESS PERIOD    268
 UBDSV06 SAVING              RIV IN MODEL GWF_1            PACKAGE GWF_1           CONNECTED TO MODEL GWF_1            PACKAGE RIV_SYS1         ON UNIT   1019 AT TIME STEP      1, STRESS PERIOD    268
 UBDSV06 SAVING              RIV IN MODEL GWF_1            PACKAGE GWF_1           CONNECTED TO MODEL GWF_1            PACKAGE RIV_SYS2         ON UNIT   1019 AT TIME STEP      1, STRESS PERIOD    268

 HEAD WILL BE SAVED ON UNIT 1018 AT END OF TIME STEP    1, STRESS PERIOD  268


  VOLUME BUDGET FOR ENTIRE MODEL AT END OF TIME STEP    1, STRESS PERIOD 268
  ---------------------------------------------------------------------------------------------------

     CUMULATIVE VOLUME      L**3       RATES FOR THIS TIME STEP      L**3/T          PACKAGE NAME    
     ------------------                 ------------------------                     ----------------

           IN:                                      IN:
           ---                                      ---
              STO-SS =      205194.3343                STO-SS =        3130.0023     STORAGE                          
                 WEL =      247611.0393                   WEL =         364.2249     RIV_CORR                         
                 DRN =           0.0000                   DRN =           0.0000     DRN_SYS1                         
                 RIV =      240226.7688                   RIV =         475.8626     RIV_SYS1                         
                 RIV =           0.0000                   RIV =           0.0000     RIV_SYS2                         
                 RCH =      392744.1209                   RCH =         277.6355     RCH_MSW                          

            TOTAL IN =     1085776.2633              TOTAL IN =        4247.7253

          OUT:                                     OUT:
          ----                                     ----
              STO-SS =      171262.4015                STO-SS =           0.0000     STORAGE                          
                 WEL =      272788.7368                   WEL =        1373.1110     RIV_CORR                         
                 DRN =       67677.6561                   DRN =         303.6584     DRN_SYS1                         
                 RIV =      262983.8450                   RIV =        1208.7518     RIV_SYS1                         
                 RIV =      182689.4924                   RIV =         812.4531     RIV_SYS2                         
                 RCH =      128377.1798                   RCH =         549.7397     RCH_MSW                          

           TOTAL OUT =     1085779.3117             TOTAL OUT =        4247.7139

            IN - OUT =          -3.0484              IN - OUT =       1.1393E-02

 PERCENT DISCREPANCY =          -0.00     PERCENT DISCREPANCY =           0.00




         TIME SUMMARY AT END OF TIME STEP    1 IN STRESS PERIOD  268
                    SECONDS     MINUTES      HOURS       DAYS        YEARS
                    -----------------------------------------------------------
   TIME STEP LENGTH  86400.      1440.0      24.000      1.0000     2.73785E-03
 STRESS PERIOD TIME  86400.      1440.0      24.000      1.0000     2.73785E-03
         TOTAL TIME 2.31552E+07 3.85920E+05  6432.0      268.00     0.73374    


end timestep


start timestep kper="269" kstp="1" mode="normal"

 #Stressperiod Save Options

 BEGIN READING OUTPUT CONTROL FOR STRESS PERIOD 269
      ALL TIME STEPS WILL BE SAVED
      ALL TIME STEPS WILL BE SAVED

 END READING OUTPUT CONTROL FOR STRESS PERIOD 269


 PROCESSING STORAGE PERIOD DATA
 END PROCESSING STORAGE PERIOD DATA


 STRESS PERIOD 269 IS TRANSIENT


 REUSING WELS FROM LAST STRESS PERIOD

 REUSING DRNS FROM LAST STRESS PERIOD

 REUSING RIVS FROM LAST STRESS PERIOD

 REUSING RIVS FROM LAST STRESS PERIOD

 REUSING RCHS FROM LAST STRESS PERIOD
 UBDSV06 SAVING              DRN IN MODEL GWF_1            PACKAGE GWF_1           CONNECTED TO MODEL GWF_1            PACKAGE DRN_SYS1         ON UNIT   1019 AT TIME STEP      1, STRESS PERIOD    269
 UBDSV06 SAVING              RIV IN MODEL GWF_1            PACKAGE GWF_1           CONNECTED TO MODEL GWF_1            PACKAGE RIV_SYS1         ON UNIT   1019 AT TIME STEP      1, STRESS PERIOD    269
 UBDSV06 SAVING              RIV IN MODEL GWF_1            PACKAGE GWF_1           CONNECTED TO MODEL GWF_1            PACKAGE RIV_SYS2         ON UNIT   1019 AT TIME STEP      1, STRESS PERIOD    269

 HEAD WILL BE SAVED ON UNIT 1018 AT END OF TIME STEP    1, STRESS PERIOD  269


  VOLUME BUDGET FOR ENTIRE MODEL AT END OF TIME STEP    1, STRESS PERIOD 269
  ---------------------------------------------------------------------------------------------------

     CUMULATIVE VOLUME      L**3       RATES FOR THIS TIME STEP      L**3/T          PACKAGE NAME    
     ------------------                 ------------------------                     ----------------

           IN:                                      IN:
           ---                                      ---
              STO-SS =      208012.3657                STO-SS =        2818.0314     STORAGE                          
                 WEL =      248086.9019                   WEL =         475.8626     RIV_CORR                         
                 DRN =           0.0000                   DRN =           0.0000     DRN_SYS1                         
                 RIV =      240662.8894                   RIV =         436.1205     RIV_SYS1                         
                 RIV =           0.0000                   RIV =           0.0000     RIV_SYS2                         
                 RCH =      392937.5910                   RCH =         193.4702     RCH_MSW                          

            TOTAL IN =     1089699.7479              TOTAL IN =        3923.4846

          OUT:                                     OUT:
          ----                                     ----
              STO-SS =      171274.5974                STO-SS =          12.1959     STORAGE                          
                 WEL =      273997.4886                   WEL =        1208.7518     RIV_CORR                         
                 DRN =       67975.9465                   DRN =         298.2904     DRN_SYS1                         
                 RIV =      264141.9418                   RIV =        1158.0968     RIV_SYS1                         
                 RIV =      183487.5359                   RIV =         798.0435     RIV_SYS2                         
                 RCH =      128825.3492                   RCH =         448.1694     RCH_MSW                          

           TOTAL OUT =     1089702.8594             TOTAL OUT =        3923.5477

            IN - OUT =          -3.1115              IN - OUT =      -6.3074E-02

 PERCENT DISCREPANCY =          -0.00     PERCENT DISCREPANCY =          -0.00




         TIME SUMMARY AT END OF TIME STEP    1 IN STRESS PERIOD  269
                    SECONDS     MINUTES      HOURS       DAYS        YEARS
                    -----------------------------------------------------------
   TIME STEP LENGTH  86400.      1440.0      24.000      1.0000     2.73785E-03
 STRESS PERIOD TIME  86400.      1440.0      24.000      1.0000     2.73785E-03
         TOTAL TIME 2.32416E+07 3.87360E+05  6456.0      269.00     0.73648    


end timestep


start timestep kper="270" kstp="1" mode="normal"

 #Stressperiod Save Options

 BEGIN READING OUTPUT CONTROL FOR STRESS PERIOD 270
      ALL TIME STEPS WILL BE SAVED
      ALL TIME STEPS WILL BE SAVED

 END READING OUTPUT CONTROL FOR STRESS PERIOD 270


 PROCESSING STORAGE PERIOD DATA
 END PROCESSING STORAGE PERIOD DATA


 STRESS PERIOD 270 IS TRANSIENT


 REUSING WELS FROM LAST STRESS PERIOD

 REUSING DRNS FROM LAST STRESS PERIOD

 REUSING RIVS FROM LAST STRESS PERIOD

 REUSING RIVS FROM LAST STRESS PERIOD

 REUSING RCHS FROM LAST STRESS PERIOD
 UBDSV06 SAVING              DRN IN MODEL GWF_1            PACKAGE GWF_1           CONNECTED TO MODEL GWF_1            PACKAGE DRN_SYS1         ON UNIT   1019 AT TIME STEP      1, STRESS PERIOD    270
 UBDSV06 SAVING              RIV IN MODEL GWF_1            PACKAGE GWF_1           CONNECTED TO MODEL GWF_1            PACKAGE RIV_SYS1         ON UNIT   1019 AT TIME STEP      1, STRESS PERIOD    270
 UBDSV06 SAVING              RIV IN MODEL GWF_1            PACKAGE GWF_1           CONNECTED TO MODEL GWF_1            PACKAGE RIV_SYS2         ON UNIT   1019 AT TIME STEP      1, STRESS PERIOD    270

 HEAD WILL BE SAVED ON UNIT 1018 AT END OF TIME STEP    1, STRESS PERIOD  270


  VOLUME BUDGET FOR ENTIRE MODEL AT END OF TIME STEP    1, STRESS PERIOD 270
  ---------------------------------------------------------------------------------------------------

     CUMULATIVE VOLUME      L**3       RATES FOR THIS TIME STEP      L**3/T          PACKAGE NAME    
     ------------------                 ------------------------                     ----------------

           IN:                                      IN:
           ---                                      ---
              STO-SS =      210716.0418                STO-SS =        2703.6761     STORAGE                          
                 WEL =      248523.0224                   WEL =         436.1205     RIV_CORR                         
                 DRN =           0.0000                   DRN =           0.0000     DRN_SYS1                         
                 RIV =      241176.0260                   RIV =         513.1367     RIV_SYS1                         
                 RIV =           0.0000                   RIV =           0.0000     RIV_SYS2                         
                 RCH =      393077.5484                   RCH =         139.9574     RCH_MSW                          

            TOTAL IN =     1093492.6387              TOTAL IN =        3792.8907

          OUT:                                     OUT:
          ----                                     ----
              STO-SS =      171274.5974                STO-SS =           0.0000     STORAGE                          
                 WEL =      275155.5854                   WEL =        1158.0968     RIV_CORR                         
                 DRN =       68269.3095                   DRN =         293.3630     DRN_SYS1                         
                 RIV =      265228.8717                   RIV =        1086.9299     RIV_SYS1                         
                 RIV =      184272.3373                   RIV =         784.8014     RIV_SYS2                         
                 RCH =      129295.0240                   RCH =         469.6748     RCH_MSW                          

           TOTAL OUT =     1093495.7254             TOTAL OUT =        3792.8660

            IN - OUT =          -3.0867              IN - OUT =       2.4730E-02

 PERCENT DISCREPANCY =          -0.00     PERCENT DISCREPANCY =           0.00




         TIME SUMMARY AT END OF TIME STEP    1 IN STRESS PERIOD  270
                    SECONDS     MINUTES      HOURS       DAYS        YEARS
                    -----------------------------------------------------------
   TIME STEP LENGTH  86400.      1440.0      24.000      1.0000     2.73785E-03
 STRESS PERIOD TIME  86400.      1440.0      24.000      1.0000     2.73785E-03
         TOTAL TIME 2.33280E+07 3.88800E+05  6480.0      270.00     0.73922    


end timestep


start timestep kper="271" kstp="1" mode="normal"

 #Stressperiod Save Options

 BEGIN READING OUTPUT CONTROL FOR STRESS PERIOD 271
      ALL TIME STEPS WILL BE SAVED
      ALL TIME STEPS WILL BE SAVED

 END READING OUTPUT CONTROL FOR STRESS PERIOD 271


 PROCESSING STORAGE PERIOD DATA
 END PROCESSING STORAGE PERIOD DATA


 STRESS PERIOD 271 IS TRANSIENT


 REUSING WELS FROM LAST STRESS PERIOD

 REUSING DRNS FROM LAST STRESS PERIOD

 REUSING RIVS FROM LAST STRESS PERIOD

 REUSING RIVS FROM LAST STRESS PERIOD

 REUSING RCHS FROM LAST STRESS PERIOD
 UBDSV06 SAVING              DRN IN MODEL GWF_1            PACKAGE GWF_1           CONNECTED TO MODEL GWF_1            PACKAGE DRN_SYS1         ON UNIT   1019 AT TIME STEP      1, STRESS PERIOD    271
 UBDSV06 SAVING              RIV IN MODEL GWF_1            PACKAGE GWF_1           CONNECTED TO MODEL GWF_1            PACKAGE RIV_SYS1         ON UNIT   1019 AT TIME STEP      1, STRESS PERIOD    271
 UBDSV06 SAVING              RIV IN MODEL GWF_1            PACKAGE GWF_1           CONNECTED TO MODEL GWF_1            PACKAGE RIV_SYS2         ON UNIT   1019 AT TIME STEP      1, STRESS PERIOD    271

 HEAD WILL BE SAVED ON UNIT 1018 AT END OF TIME STEP    1, STRESS PERIOD  271


  VOLUME BUDGET FOR ENTIRE MODEL AT END OF TIME STEP    1, STRESS PERIOD 271
  ---------------------------------------------------------------------------------------------------

     CUMULATIVE VOLUME      L**3       RATES FOR THIS TIME STEP      L**3/T          PACKAGE NAME    
     ------------------                 ------------------------                     ----------------

           IN:                                      IN:
           ---                                      ---
              STO-SS =      213274.6469                STO-SS =        2558.6051     STORAGE                          
                 WEL =      249036.1591                   WEL =         513.1367     RIV_CORR                         
                 DRN =           0.0000                   DRN =           0.0000     DRN_SYS1                         
                 RIV =      241726.9249                   RIV =         550.8989     RIV_SYS1                         
                 RIV =           0.0000                   RIV =           0.0000     RIV_SYS2                         
                 RCH =      393183.0977                   RCH =         105.5493     RCH_MSW                          

            TOTAL IN =     1097220.8286              TOTAL IN =        3728.1900

          OUT:                                     OUT:
          ----                                     ----
              STO-SS =      171275.1022                STO-SS =           0.5048     STORAGE                          
                 WEL =      276242.5154                   WEL =        1086.9299     RIV_CORR                         
                 DRN =       68558.0652                   DRN =         288.7557     DRN_SYS1                         
                 RIV =      266264.4957                   RIV =        1035.6239     RIV_SYS1                         
                 RIV =      185044.9361                   RIV =         772.5988     RIV_SYS2                         
                 RCH =      129838.8674                   RCH =         543.8434     RCH_MSW                          

           TOTAL OUT =     1097223.9820             TOTAL OUT =        3728.2566

            IN - OUT =          -3.1533              IN - OUT =      -6.6578E-02

 PERCENT DISCREPANCY =          -0.00     PERCENT DISCREPANCY =          -0.00




         TIME SUMMARY AT END OF TIME STEP    1 IN STRESS PERIOD  271
                    SECONDS     MINUTES      HOURS       DAYS        YEARS
                    -----------------------------------------------------------
   TIME STEP LENGTH  86400.      1440.0      24.000      1.0000     2.73785E-03
 STRESS PERIOD TIME  86400.      1440.0      24.000      1.0000     2.73785E-03
         TOTAL TIME 2.34144E+07 3.90240E+05  6504.0      271.00     0.74196    


end timestep


start timestep kper="272" kstp="1" mode="normal"

 #Stressperiod Save Options

 BEGIN READING OUTPUT CONTROL FOR STRESS PERIOD 272
      ALL TIME STEPS WILL BE SAVED
      ALL TIME STEPS WILL BE SAVED

 END READING OUTPUT CONTROL FOR STRESS PERIOD 272


 PROCESSING STORAGE PERIOD DATA
 END PROCESSING STORAGE PERIOD DATA


 STRESS PERIOD 272 IS TRANSIENT


 REUSING WELS FROM LAST STRESS PERIOD

 REUSING DRNS FROM LAST STRESS PERIOD

 REUSING RIVS FROM LAST STRESS PERIOD

 REUSING RIVS FROM LAST STRESS PERIOD

 REUSING RCHS FROM LAST STRESS PERIOD
 UBDSV06 SAVING              DRN IN MODEL GWF_1            PACKAGE GWF_1           CONNECTED TO MODEL GWF_1            PACKAGE DRN_SYS1         ON UNIT   1019 AT TIME STEP      1, STRESS PERIOD    272
 UBDSV06 SAVING              RIV IN MODEL GWF_1            PACKAGE GWF_1           CONNECTED TO MODEL GWF_1            PACKAGE RIV_SYS1         ON UNIT   1019 AT TIME STEP      1, STRESS PERIOD    272
 UBDSV06 SAVING              RIV IN MODEL GWF_1            PACKAGE GWF_1           CONNECTED TO MODEL GWF_1            PACKAGE RIV_SYS2         ON UNIT   1019 AT TIME STEP      1, STRESS PERIOD    272

 HEAD WILL BE SAVED ON UNIT 1018 AT END OF TIME STEP    1, STRESS PERIOD  272


  VOLUME BUDGET FOR ENTIRE MODEL AT END OF TIME STEP    1, STRESS PERIOD 272
  ---------------------------------------------------------------------------------------------------

     CUMULATIVE VOLUME      L**3       RATES FOR THIS TIME STEP      L**3/T          PACKAGE NAME    
     ------------------                 ------------------------                     ----------------

           IN:                                      IN:
           ---                                      ---
              STO-SS =      215599.5064                STO-SS =        2324.8595     STORAGE                          
                 WEL =      249587.0579                   WEL =         550.8989     RIV_CORR                         
                 DRN =           0.0000                   DRN =           0.0000     DRN_SYS1                         
                 RIV =      242276.3144                   RIV =         549.3895     RIV_SYS1                         
                 RIV =           0.0000                   RIV =           0.0000     RIV_SYS2                         
                 RCH =      393266.3378                   RCH =          83.2400     RCH_MSW                          

            TOTAL IN =     1100729.2165              TOTAL IN =        3508.3879

          OUT:                                     OUT:
          ----                                     ----
              STO-SS =      171277.6349                STO-SS =           2.5327     STORAGE                          
                 WEL =      277278.1393                   WEL =        1035.6239     RIV_CORR                         
                 DRN =       68842.5937                   DRN =         284.5285     DRN_SYS1                         
                 RIV =      267261.4589                   RIV =         996.9632     RIV_SYS1                         
                 RIV =      185806.3604                   RIV =         761.4243     RIV_SYS2                         
                 RCH =      130266.1678                   RCH =         427.3004     RCH_MSW                          

           TOTAL OUT =     1100732.3549             TOTAL OUT =        3508.3730

            IN - OUT =          -3.1384              IN - OUT =       1.4895E-02

 PERCENT DISCREPANCY =          -0.00     PERCENT DISCREPANCY =           0.00




         TIME SUMMARY AT END OF TIME STEP    1 IN STRESS PERIOD  272
                    SECONDS     MINUTES      HOURS       DAYS        YEARS
                    -----------------------------------------------------------
   TIME STEP LENGTH  86400.      1440.0      24.000      1.0000     2.73785E-03
 STRESS PERIOD TIME  86400.      1440.0      24.000      1.0000     2.73785E-03
         TOTAL TIME 2.35008E+07 3.91680E+05  6528.0      272.00     0.74470    


end timestep


start timestep kper="273" kstp="1" mode="normal"

 #Stressperiod Save Options

 BEGIN READING OUTPUT CONTROL FOR STRESS PERIOD 273
      ALL TIME STEPS WILL BE SAVED
      ALL TIME STEPS WILL BE SAVED

 END READING OUTPUT CONTROL FOR STRESS PERIOD 273


 PROCESSING STORAGE PERIOD DATA
 END PROCESSING STORAGE PERIOD DATA


 STRESS PERIOD 273 IS TRANSIENT


 REUSING WELS FROM LAST STRESS PERIOD

 REUSING DRNS FROM LAST STRESS PERIOD

 REUSING RIVS FROM LAST STRESS PERIOD

 REUSING RIVS FROM LAST STRESS PERIOD

 REUSING RCHS FROM LAST STRESS PERIOD
 UBDSV06 SAVING              DRN IN MODEL GWF_1            PACKAGE GWF_1           CONNECTED TO MODEL GWF_1            PACKAGE DRN_SYS1         ON UNIT   1019 AT TIME STEP      1, STRESS PERIOD    273
 UBDSV06 SAVING              RIV IN MODEL GWF_1            PACKAGE GWF_1           CONNECTED TO MODEL GWF_1            PACKAGE RIV_SYS1         ON UNIT   1019 AT TIME STEP      1, STRESS PERIOD    273
 UBDSV06 SAVING              RIV IN MODEL GWF_1            PACKAGE GWF_1           CONNECTED TO MODEL GWF_1            PACKAGE RIV_SYS2         ON UNIT   1019 AT TIME STEP      1, STRESS PERIOD    273

 HEAD WILL BE SAVED ON UNIT 1018 AT END OF TIME STEP    1, STRESS PERIOD  273


  VOLUME BUDGET FOR ENTIRE MODEL AT END OF TIME STEP    1, STRESS PERIOD 273
  ---------------------------------------------------------------------------------------------------

     CUMULATIVE VOLUME      L**3       RATES FOR THIS TIME STEP      L**3/T          PACKAGE NAME    
     ------------------                 ------------------------                     ----------------

           IN:                                      IN:
           ---                                      ---
              STO-SS =      217794.5124                STO-SS =        2195.0060     STORAGE                          
                 WEL =      250136.4474                   WEL =         549.3895     RIV_CORR                         
                 DRN =           0.0000                   DRN =           0.0000     DRN_SYS1                         
                 RIV =      242877.9751                   RIV =         601.6607     RIV_SYS1                         
                 RIV =           0.0000                   RIV =           0.0000     RIV_SYS2                         
                 RCH =      393333.9548                   RCH =          67.6170     RCH_MSW                          

            TOTAL IN =     1104142.8897              TOTAL IN =        3413.6732

          OUT:                                     OUT:
          ----                                     ----
              STO-SS =      171277.6349                STO-SS =           0.0000     STORAGE                          
                 WEL =      278275.1025                   WEL =         996.9632     RIV_CORR                         
                 DRN =       69123.2610                   DRN =         280.6674     DRN_SYS1                         
                 RIV =      268223.0773                   RIV =         961.6184     RIV_SYS1                         
                 RIV =      186557.5332                   RIV =         751.1727     RIV_SYS2                         
                 RCH =      130689.4535                   RCH =         423.2857     RCH_MSW                          

           TOTAL OUT =     1104146.0623             TOTAL OUT =        3413.7074

            IN - OUT =          -3.1726              IN - OUT =      -3.4195E-02

 PERCENT DISCREPANCY =          -0.00     PERCENT DISCREPANCY =          -0.00




         TIME SUMMARY AT END OF TIME STEP    1 IN STRESS PERIOD  273
                    SECONDS     MINUTES      HOURS       DAYS        YEARS
                    -----------------------------------------------------------
   TIME STEP LENGTH  86400.      1440.0      24.000      1.0000     2.73785E-03
 STRESS PERIOD TIME  86400.      1440.0      24.000      1.0000     2.73785E-03
         TOTAL TIME 2.35872E+07 3.93120E+05  6552.0      273.00     0.74743    


end timestep


start timestep kper="274" kstp="1" mode="normal"

 #Stressperiod Save Options

 BEGIN READING OUTPUT CONTROL FOR STRESS PERIOD 274
      ALL TIME STEPS WILL BE SAVED
      ALL TIME STEPS WILL BE SAVED

 END READING OUTPUT CONTROL FOR STRESS PERIOD 274


 PROCESSING STORAGE PERIOD DATA
 END PROCESSING STORAGE PERIOD DATA


 STRESS PERIOD 274 IS TRANSIENT


 REUSING WELS FROM LAST STRESS PERIOD

 REUSING DRNS FROM LAST STRESS PERIOD

 REUSING RIVS FROM LAST STRESS PERIOD

 REUSING RIVS FROM LAST STRESS PERIOD

 REUSING RCHS FROM LAST STRESS PERIOD
 UBDSV06 SAVING              DRN IN MODEL GWF_1            PACKAGE GWF_1           CONNECTED TO MODEL GWF_1            PACKAGE DRN_SYS1         ON UNIT   1019 AT TIME STEP      1, STRESS PERIOD    274
 UBDSV06 SAVING              RIV IN MODEL GWF_1            PACKAGE GWF_1           CONNECTED TO MODEL GWF_1            PACKAGE RIV_SYS1         ON UNIT   1019 AT TIME STEP      1, STRESS PERIOD    274
 UBDSV06 SAVING              RIV IN MODEL GWF_1            PACKAGE GWF_1           CONNECTED TO MODEL GWF_1            PACKAGE RIV_SYS2         ON UNIT   1019 AT TIME STEP      1, STRESS PERIOD    274

 HEAD WILL BE SAVED ON UNIT 1018 AT END OF TIME STEP    1, STRESS PERIOD  274


  VOLUME BUDGET FOR ENTIRE MODEL AT END OF TIME STEP    1, STRESS PERIOD 274
  ---------------------------------------------------------------------------------------------------

     CUMULATIVE VOLUME      L**3       RATES FOR THIS TIME STEP      L**3/T          PACKAGE NAME    
     ------------------                 ------------------------                     ----------------

           IN:                                      IN:
           ---                                      ---
              STO-SS =      219589.1834                STO-SS =        1794.6710     STORAGE                          
                 WEL =      250738.1081                   WEL =         601.6607     RIV_CORR                         
                 DRN =           0.0000                   DRN =           0.0000     DRN_SYS1                         
                 RIV =      243381.3703                   RIV =         503.3952     RIV_SYS1                         
                 RIV =           0.0000                   RIV =           0.0000     RIV_SYS2                         
                 RCH =      393672.3234                   RCH =         338.3687     RCH_MSW                          

            TOTAL IN =     1107380.9853              TOTAL IN =        3238.0956

          OUT:                                     OUT:
          ----                                     ----
              STO-SS =      171361.7057                STO-SS =          84.0708     STORAGE                          
                 WEL =      279236.7209                   WEL =         961.6184     RIV_CORR                         
                 DRN =       69400.6149                   DRN =         277.3539     DRN_SYS1                         
                 RIV =      269218.9474                   RIV =         995.8701     RIV_SYS1                         
                 RIV =      187299.8634                   RIV =         742.3303     RIV_SYS2                         
                 RCH =      130866.3035                   RCH =         176.8500     RCH_MSW                          

           TOTAL OUT =     1107384.1559             TOTAL OUT =        3238.0936

            IN - OUT =          -3.1706              IN - OUT =       2.0490E-03

 PERCENT DISCREPANCY =          -0.00     PERCENT DISCREPANCY =           0.00




         TIME SUMMARY AT END OF TIME STEP    1 IN STRESS PERIOD  274
                    SECONDS     MINUTES      HOURS       DAYS        YEARS
                    -----------------------------------------------------------
   TIME STEP LENGTH  86400.      1440.0      24.000      1.0000     2.73785E-03
 STRESS PERIOD TIME  86400.      1440.0      24.000      1.0000     2.73785E-03
         TOTAL TIME 2.36736E+07 3.94560E+05  6576.0      274.00     0.75017    


end timestep


start timestep kper="275" kstp="1" mode="normal"

 #Stressperiod Save Options

 BEGIN READING OUTPUT CONTROL FOR STRESS PERIOD 275
      ALL TIME STEPS WILL BE SAVED
      ALL TIME STEPS WILL BE SAVED

 END READING OUTPUT CONTROL FOR STRESS PERIOD 275


 PROCESSING STORAGE PERIOD DATA
 END PROCESSING STORAGE PERIOD DATA


 STRESS PERIOD 275 IS TRANSIENT


 REUSING WELS FROM LAST STRESS PERIOD

 REUSING DRNS FROM LAST STRESS PERIOD

 REUSING RIVS FROM LAST STRESS PERIOD

 REUSING RIVS FROM LAST STRESS PERIOD

 REUSING RCHS FROM LAST STRESS PERIOD
 UBDSV06 SAVING              DRN IN MODEL GWF_1            PACKAGE GWF_1           CONNECTED TO MODEL GWF_1            PACKAGE DRN_SYS1         ON UNIT   1019 AT TIME STEP      1, STRESS PERIOD    275
 UBDSV06 SAVING              RIV IN MODEL GWF_1            PACKAGE GWF_1           CONNECTED TO MODEL GWF_1            PACKAGE RIV_SYS1         ON UNIT   1019 AT TIME STEP      1, STRESS PERIOD    275
 UBDSV06 SAVING              RIV IN MODEL GWF_1            PACKAGE GWF_1           CONNECTED TO MODEL GWF_1            PACKAGE RIV_SYS2         ON UNIT   1019 AT TIME STEP      1, STRESS PERIOD    275

 HEAD WILL BE SAVED ON UNIT 1018 AT END OF TIME STEP    1, STRESS PERIOD  275


  VOLUME BUDGET FOR ENTIRE MODEL AT END OF TIME STEP    1, STRESS PERIOD 275
  ---------------------------------------------------------------------------------------------------

     CUMULATIVE VOLUME      L**3       RATES FOR THIS TIME STEP      L**3/T          PACKAGE NAME    
     ------------------                 ------------------------                     ----------------

           IN:                                      IN:
           ---                                      ---
              STO-SS =      221231.7454                STO-SS =        1642.5620     STORAGE                          
                 WEL =      251241.5034                   WEL =         503.3952     RIV_CORR                         
                 DRN =           0.0000                   DRN =           0.0000     DRN_SYS1                         
                 RIV =      243941.8623                   RIV =         560.4920     RIV_SYS1                         
                 RIV =           0.0000                   RIV =           0.0000     RIV_SYS2                         
                 RCH =      394004.0290                   RCH =         331.7056     RCH_MSW                          

            TOTAL IN =     1110419.1401              TOTAL IN =        3038.1547

          OUT:                                     OUT:
          ----                                     ----
              STO-SS =      171361.7057                STO-SS =           0.0000     STORAGE                          
                 WEL =      280232.5911                   WEL =         995.8701     RIV_CORR                         
                 DRN =       69675.1349                   DRN =         274.5200     DRN_SYS1                         
                 RIV =      270153.4175                   RIV =         934.4701     RIV_SYS1                         
                 RIV =      188034.5061                   RIV =         734.6426     RIV_SYS2                         
                 RCH =      130964.9521                   RCH =          98.6486     RCH_MSW                          

           TOTAL OUT =     1110422.3073             TOTAL OUT =        3038.1514

            IN - OUT =          -3.1672              IN - OUT =       3.3654E-03

 PERCENT DISCREPANCY =          -0.00     PERCENT DISCREPANCY =           0.00




         TIME SUMMARY AT END OF TIME STEP    1 IN STRESS PERIOD  275
                    SECONDS     MINUTES      HOURS       DAYS        YEARS
                    -----------------------------------------------------------
   TIME STEP LENGTH  86400.      1440.0      24.000      1.0000     2.73785E-03
 STRESS PERIOD TIME  86400.      1440.0      24.000      1.0000     2.73785E-03
         TOTAL TIME 2.37600E+07 3.96000E+05  6600.0      275.00     0.75291    


end timestep


start timestep kper="276" kstp="1" mode="normal"

 #Stressperiod Save Options

 BEGIN READING OUTPUT CONTROL FOR STRESS PERIOD 276
      ALL TIME STEPS WILL BE SAVED
      ALL TIME STEPS WILL BE SAVED

 END READING OUTPUT CONTROL FOR STRESS PERIOD 276


 PROCESSING STORAGE PERIOD DATA
 END PROCESSING STORAGE PERIOD DATA


 STRESS PERIOD 276 IS TRANSIENT


 REUSING WELS FROM LAST STRESS PERIOD

 REUSING DRNS FROM LAST STRESS PERIOD

 REUSING RIVS FROM LAST STRESS PERIOD

 REUSING RIVS FROM LAST STRESS PERIOD

 REUSING RCHS FROM LAST STRESS PERIOD
 UBDSV06 SAVING              DRN IN MODEL GWF_1            PACKAGE GWF_1           CONNECTED TO MODEL GWF_1            PACKAGE DRN_SYS1         ON UNIT   1019 AT TIME STEP      1, STRESS PERIOD    276
 UBDSV06 SAVING              RIV IN MODEL GWF_1            PACKAGE GWF_1           CONNECTED TO MODEL GWF_1            PACKAGE RIV_SYS1         ON UNIT   1019 AT TIME STEP      1, STRESS PERIOD    276
 UBDSV06 SAVING              RIV IN MODEL GWF_1            PACKAGE GWF_1           CONNECTED TO MODEL GWF_1            PACKAGE RIV_SYS2         ON UNIT   1019 AT TIME STEP      1, STRESS PERIOD    276

 HEAD WILL BE SAVED ON UNIT 1018 AT END OF TIME STEP    1, STRESS PERIOD  276


  VOLUME BUDGET FOR ENTIRE MODEL AT END OF TIME STEP    1, STRESS PERIOD 276
  ---------------------------------------------------------------------------------------------------

     CUMULATIVE VOLUME      L**3       RATES FOR THIS TIME STEP      L**3/T          PACKAGE NAME    
     ------------------                 ------------------------                     ----------------

           IN:                                      IN:
           ---                                      ---
              STO-SS =      221313.7701                STO-SS =          82.0247     STORAGE                          
                 WEL =      251801.9953                   WEL =         560.4920     RIV_CORR                         
                 DRN =           0.0000                   DRN =           0.0000     DRN_SYS1                         
                 RIV =      244111.4097                   RIV =         169.5474     RIV_SYS1                         
                 RIV =           0.0000                   RIV =           0.0000     RIV_SYS2                         
                 RCH =      404406.0795                   RCH =       10402.0504     RCH_MSW                          

            TOTAL IN =     1121633.2546              TOTAL IN =       11214.1145

          OUT:                                     OUT:
          ----                                     ----
              STO-SS =      177889.2049                STO-SS =        6527.4992     STORAGE                          
                 WEL =      281167.0611                   WEL =         934.4701     RIV_CORR                         
                 DRN =       69960.9602                   DRN =         285.8254     DRN_SYS1                         
                 RIV =      272865.3353                   RIV =        2711.9178     RIV_SYS1                         
                 RIV =      188788.9057                   RIV =         754.3997     RIV_SYS2                         
                 RCH =      130964.9521                   RCH =           0.0000     RCH_MSW                          

           TOTAL OUT =     1121636.4194             TOTAL OUT =       11214.1121

            IN - OUT =          -3.1648              IN - OUT =       2.3776E-03

 PERCENT DISCREPANCY =          -0.00     PERCENT DISCREPANCY =           0.00




         TIME SUMMARY AT END OF TIME STEP    1 IN STRESS PERIOD  276
                    SECONDS     MINUTES      HOURS       DAYS        YEARS
                    -----------------------------------------------------------
   TIME STEP LENGTH  86400.      1440.0      24.000      1.0000     2.73785E-03
 STRESS PERIOD TIME  86400.      1440.0      24.000      1.0000     2.73785E-03
         TOTAL TIME 2.38464E+07 3.97440E+05  6624.0      276.00     0.75565    


end timestep


start timestep kper="277" kstp="1" mode="normal"

 #Stressperiod Save Options

 BEGIN READING OUTPUT CONTROL FOR STRESS PERIOD 277
      ALL TIME STEPS WILL BE SAVED
      ALL TIME STEPS WILL BE SAVED

 END READING OUTPUT CONTROL FOR STRESS PERIOD 277


 PROCESSING STORAGE PERIOD DATA
 END PROCESSING STORAGE PERIOD DATA


 STRESS PERIOD 277 IS TRANSIENT


 REUSING WELS FROM LAST STRESS PERIOD

 REUSING DRNS FROM LAST STRESS PERIOD

 REUSING RIVS FROM LAST STRESS PERIOD

 REUSING RIVS FROM LAST STRESS PERIOD

 REUSING RCHS FROM LAST STRESS PERIOD
 UBDSV06 SAVING              DRN IN MODEL GWF_1            PACKAGE GWF_1           CONNECTED TO MODEL GWF_1            PACKAGE DRN_SYS1         ON UNIT   1019 AT TIME STEP      1, STRESS PERIOD    277
 UBDSV06 SAVING              RIV IN MODEL GWF_1            PACKAGE GWF_1           CONNECTED TO MODEL GWF_1            PACKAGE RIV_SYS1         ON UNIT   1019 AT TIME STEP      1, STRESS PERIOD    277
 UBDSV06 SAVING              RIV IN MODEL GWF_1            PACKAGE GWF_1           CONNECTED TO MODEL GWF_1            PACKAGE RIV_SYS2         ON UNIT   1019 AT TIME STEP      1, STRESS PERIOD    277

 HEAD WILL BE SAVED ON UNIT 1018 AT END OF TIME STEP    1, STRESS PERIOD  277


  VOLUME BUDGET FOR ENTIRE MODEL AT END OF TIME STEP    1, STRESS PERIOD 277
  ---------------------------------------------------------------------------------------------------

     CUMULATIVE VOLUME      L**3       RATES FOR THIS TIME STEP      L**3/T          PACKAGE NAME    
     ------------------                 ------------------------                     ----------------

           IN:                                      IN:
           ---                                      ---
              STO-SS =      223139.9672                STO-SS =        1826.1972     STORAGE                          
                 WEL =      251971.5427                   WEL =         169.5474     RIV_CORR                         
                 DRN =           0.0000                   DRN =           0.0000     DRN_SYS1                         
                 RIV =      244488.0698                   RIV =         376.6601     RIV_SYS1                         
                 RIV =           0.0000                   RIV =           0.0000     RIV_SYS2                         
                 RCH =      411315.3179                   RCH =        6909.2384     RCH_MSW                          

            TOTAL IN =     1130914.8977              TOTAL IN =        9281.6431

          OUT:                                     OUT:
          ----                                     ----
              STO-SS =      180557.1831                STO-SS =        2667.9781     STORAGE                          
                 WEL =      283878.9790                   WEL =        2711.9178     RIV_CORR                         
                 DRN =       70256.0229                   DRN =         295.0627     DRN_SYS1                         
                 RIV =      274466.3050                   RIV =        1600.9697     RIV_SYS1                         
                 RIV =      189565.2197                   RIV =         776.3139     RIV_SYS2                         
                 RCH =      132194.3229                   RCH =        1229.3708     RCH_MSW                          

           TOTAL OUT =     1130918.0326             TOTAL OUT =        9281.6132

            IN - OUT =          -3.1349              IN - OUT =       2.9955E-02

 PERCENT DISCREPANCY =          -0.00     PERCENT DISCREPANCY =           0.00




         TIME SUMMARY AT END OF TIME STEP    1 IN STRESS PERIOD  277
                    SECONDS     MINUTES      HOURS       DAYS        YEARS
                    -----------------------------------------------------------
   TIME STEP LENGTH  86400.      1440.0      24.000      1.0000     2.73785E-03
 STRESS PERIOD TIME  86400.      1440.0      24.000      1.0000     2.73785E-03
         TOTAL TIME 2.39328E+07 3.98880E+05  6648.0      277.00     0.75838    


end timestep


start timestep kper="278" kstp="1" mode="normal"

 #Stressperiod Save Options

 BEGIN READING OUTPUT CONTROL FOR STRESS PERIOD 278
      ALL TIME STEPS WILL BE SAVED
      ALL TIME STEPS WILL BE SAVED

 END READING OUTPUT CONTROL FOR STRESS PERIOD 278


 PROCESSING STORAGE PERIOD DATA
 END PROCESSING STORAGE PERIOD DATA


 STRESS PERIOD 278 IS TRANSIENT


 REUSING WELS FROM LAST STRESS PERIOD

 REUSING DRNS FROM LAST STRESS PERIOD

 REUSING RIVS FROM LAST STRESS PERIOD

 REUSING RIVS FROM LAST STRESS PERIOD

 REUSING RCHS FROM LAST STRESS PERIOD
 UBDSV06 SAVING              DRN IN MODEL GWF_1            PACKAGE GWF_1           CONNECTED TO MODEL GWF_1            PACKAGE DRN_SYS1         ON UNIT   1019 AT TIME STEP      1, STRESS PERIOD    278
 UBDSV06 SAVING              RIV IN MODEL GWF_1            PACKAGE GWF_1           CONNECTED TO MODEL GWF_1            PACKAGE RIV_SYS1         ON UNIT   1019 AT TIME STEP      1, STRESS PERIOD    278
 UBDSV06 SAVING              RIV IN MODEL GWF_1            PACKAGE GWF_1           CONNECTED TO MODEL GWF_1            PACKAGE RIV_SYS2         ON UNIT   1019 AT TIME STEP      1, STRESS PERIOD    278

 HEAD WILL BE SAVED ON UNIT 1018 AT END OF TIME STEP    1, STRESS PERIOD  278


  VOLUME BUDGET FOR ENTIRE MODEL AT END OF TIME STEP    1, STRESS PERIOD 278
  ---------------------------------------------------------------------------------------------------

     CUMULATIVE VOLUME      L**3       RATES FOR THIS TIME STEP      L**3/T          PACKAGE NAME    
     ------------------                 ------------------------                     ----------------

           IN:                                      IN:
           ---                                      ---
              STO-SS =      223783.1289                STO-SS =         643.1617     STORAGE                          
                 WEL =      252348.2029                   WEL =         376.6601     RIV_CORR                         
                 DRN =           0.0000                   DRN =           0.0000     DRN_SYS1                         
                 RIV =      244810.6483                   RIV =         322.5784     RIV_SYS1                         
                 RIV =           0.0000                   RIV =           0.0000     RIV_SYS2                         
                 RCH =      415308.1670                   RCH =        3992.8492     RCH_MSW                          

            TOTAL IN =     1136250.1471              TOTAL IN =        5335.2494

          OUT:                                     OUT:
          ----                                     ----
              STO-SS =      181560.5786                STO-SS =        1003.3955     STORAGE                          
                 WEL =      285479.9487                   WEL =        1600.9697     RIV_CORR                         
                 DRN =       70552.4380                   DRN =         296.4151     DRN_SYS1                         
                 RIV =      276118.0625                   RIV =        1651.7574     RIV_SYS1                         
                 RIV =      190347.9427                   RIV =         782.7230     RIV_SYS2                         
                 RCH =      132194.3229                   RCH =           0.0000     RCH_MSW                          

           TOTAL OUT =     1136253.2934             TOTAL OUT =        5335.2608

            IN - OUT =          -3.1462              IN - OUT =      -1.1368E-02

 PERCENT DISCREPANCY =          -0.00     PERCENT DISCREPANCY =          -0.00




         TIME SUMMARY AT END OF TIME STEP    1 IN STRESS PERIOD  278
                    SECONDS     MINUTES      HOURS       DAYS        YEARS
                    -----------------------------------------------------------
   TIME STEP LENGTH  86400.      1440.0      24.000      1.0000     2.73785E-03
 STRESS PERIOD TIME  86400.      1440.0      24.000      1.0000     2.73785E-03
         TOTAL TIME 2.40192E+07 4.00320E+05  6672.0      278.00     0.76112    


end timestep


start timestep kper="279" kstp="1" mode="normal"

 #Stressperiod Save Options

 BEGIN READING OUTPUT CONTROL FOR STRESS PERIOD 279
      ALL TIME STEPS WILL BE SAVED
      ALL TIME STEPS WILL BE SAVED

 END READING OUTPUT CONTROL FOR STRESS PERIOD 279


 PROCESSING STORAGE PERIOD DATA
 END PROCESSING STORAGE PERIOD DATA


 STRESS PERIOD 279 IS TRANSIENT


 REUSING WELS FROM LAST STRESS PERIOD

 REUSING DRNS FROM LAST STRESS PERIOD

 REUSING RIVS FROM LAST STRESS PERIOD

 REUSING RIVS FROM LAST STRESS PERIOD

 REUSING RCHS FROM LAST STRESS PERIOD
 UBDSV06 SAVING              DRN IN MODEL GWF_1            PACKAGE GWF_1           CONNECTED TO MODEL GWF_1            PACKAGE DRN_SYS1         ON UNIT   1019 AT TIME STEP      1, STRESS PERIOD    279
 UBDSV06 SAVING              RIV IN MODEL GWF_1            PACKAGE GWF_1           CONNECTED TO MODEL GWF_1            PACKAGE RIV_SYS1         ON UNIT   1019 AT TIME STEP      1, STRESS PERIOD    279
 UBDSV06 SAVING              RIV IN MODEL GWF_1            PACKAGE GWF_1           CONNECTED TO MODEL GWF_1            PACKAGE RIV_SYS2         ON UNIT   1019 AT TIME STEP      1, STRESS PERIOD    279

 HEAD WILL BE SAVED ON UNIT 1018 AT END OF TIME STEP    1, STRESS PERIOD  279


  VOLUME BUDGET FOR ENTIRE MODEL AT END OF TIME STEP    1, STRESS PERIOD 279
  ---------------------------------------------------------------------------------------------------

     CUMULATIVE VOLUME      L**3       RATES FOR THIS TIME STEP      L**3/T          PACKAGE NAME    
     ------------------                 ------------------------                     ----------------

           IN:                                      IN:
           ---                                      ---
              STO-SS =      224951.1822                STO-SS =        1168.0532     STORAGE                          
                 WEL =      252670.7813                   WEL =         322.5784     RIV_CORR                         
                 DRN =           0.0000                   DRN =           0.0000     DRN_SYS1                         
                 RIV =      245242.0867                   RIV =         431.4385     RIV_SYS1                         
                 RIV =           0.0000                   RIV =           0.0000     RIV_SYS2                         
                 RCH =      417678.1760                   RCH =        2370.0090     RCH_MSW                          

            TOTAL IN =     1140542.2262              TOTAL IN =        4292.0791

          OUT:                                     OUT:
          ----                                     ----
              STO-SS =      181820.1308                STO-SS =         259.5522     STORAGE                          
                 WEL =      287131.7061                   WEL =        1651.7574     RIV_CORR                         
                 DRN =       70846.7342                   DRN =         294.2962     DRN_SYS1                         
                 RIV =      277381.6348                   RIV =        1263.5723     RIV_SYS1                         
                 RIV =      191127.6877                   RIV =         779.7450     RIV_SYS2                         
                 RCH =      132237.4988                   RCH =          43.1758     RCH_MSW                          

           TOTAL OUT =     1140545.3923             TOTAL OUT =        4292.0990

            IN - OUT =          -3.1661              IN - OUT =      -1.9878E-02

 PERCENT DISCREPANCY =          -0.00     PERCENT DISCREPANCY =          -0.00




         TIME SUMMARY AT END OF TIME STEP    1 IN STRESS PERIOD  279
                    SECONDS     MINUTES      HOURS       DAYS        YEARS
                    -----------------------------------------------------------
   TIME STEP LENGTH  86400.      1440.0      24.000      1.0000     2.73785E-03
 STRESS PERIOD TIME  86400.      1440.0      24.000      1.0000     2.73785E-03
         TOTAL TIME 2.41056E+07 4.01760E+05  6696.0      279.00     0.76386    


end timestep


start timestep kper="280" kstp="1" mode="normal"

 #Stressperiod Save Options

 BEGIN READING OUTPUT CONTROL FOR STRESS PERIOD 280
      ALL TIME STEPS WILL BE SAVED
      ALL TIME STEPS WILL BE SAVED

 END READING OUTPUT CONTROL FOR STRESS PERIOD 280


 PROCESSING STORAGE PERIOD DATA
 END PROCESSING STORAGE PERIOD DATA


 STRESS PERIOD 280 IS TRANSIENT


 REUSING WELS FROM LAST STRESS PERIOD

 REUSING DRNS FROM LAST STRESS PERIOD

 REUSING RIVS FROM LAST STRESS PERIOD

 REUSING RIVS FROM LAST STRESS PERIOD

 REUSING RCHS FROM LAST STRESS PERIOD
 UBDSV06 SAVING              DRN IN MODEL GWF_1            PACKAGE GWF_1           CONNECTED TO MODEL GWF_1            PACKAGE DRN_SYS1         ON UNIT   1019 AT TIME STEP      1, STRESS PERIOD    280
 UBDSV06 SAVING              RIV IN MODEL GWF_1            PACKAGE GWF_1           CONNECTED TO MODEL GWF_1            PACKAGE RIV_SYS1         ON UNIT   1019 AT TIME STEP      1, STRESS PERIOD    280
 UBDSV06 SAVING              RIV IN MODEL GWF_1            PACKAGE GWF_1           CONNECTED TO MODEL GWF_1            PACKAGE RIV_SYS2         ON UNIT   1019 AT TIME STEP      1, STRESS PERIOD    280

 HEAD WILL BE SAVED ON UNIT 1018 AT END OF TIME STEP    1, STRESS PERIOD  280


  VOLUME BUDGET FOR ENTIRE MODEL AT END OF TIME STEP    1, STRESS PERIOD 280
  ---------------------------------------------------------------------------------------------------

     CUMULATIVE VOLUME      L**3       RATES FOR THIS TIME STEP      L**3/T          PACKAGE NAME    
     ------------------                 ------------------------                     ----------------

           IN:                                      IN:
           ---                                      ---
              STO-SS =      226271.6622                STO-SS =        1320.4801     STORAGE                          
                 WEL =      253102.2198                   WEL =         431.4385     RIV_CORR                         
                 DRN =           0.0000                   DRN =           0.0000     DRN_SYS1                         
                 RIV =      245683.4296                   RIV =         441.3428     RIV_SYS1                         
                 RIV =           0.0000                   RIV =           0.0000     RIV_SYS2                         
                 RCH =      419206.7518                   RCH =        1528.5758     RCH_MSW                          

            TOTAL IN =     1144264.0634              TOTAL IN =        3721.8371

          OUT:                                     OUT:
          ----                                     ----
              STO-SS =      181848.4441                STO-SS =          28.3134     STORAGE                          
                 WEL =      288395.2784                   WEL =        1263.5723     RIV_CORR                         
                 DRN =       71137.6990                   DRN =         290.9649     DRN_SYS1                         
                 RIV =      278582.3897                   RIV =        1200.7549     RIV_SYS1                         
                 RIV =      191900.4064                   RIV =         772.7187     RIV_SYS2                         
                 RCH =      132403.0342                   RCH =         165.5354     RCH_MSW                          

           TOTAL OUT =     1144267.2519             TOTAL OUT =        3721.8596

            IN - OUT =          -3.1886              IN - OUT =      -2.2445E-02

 PERCENT DISCREPANCY =          -0.00     PERCENT DISCREPANCY =          -0.00




         TIME SUMMARY AT END OF TIME STEP    1 IN STRESS PERIOD  280
                    SECONDS     MINUTES      HOURS       DAYS        YEARS
                    -----------------------------------------------------------
   TIME STEP LENGTH  86400.      1440.0      24.000      1.0000     2.73785E-03
 STRESS PERIOD TIME  86400.      1440.0      24.000      1.0000     2.73785E-03
         TOTAL TIME 2.41920E+07 4.03200E+05  6720.0      280.00     0.76660    


end timestep


start timestep kper="281" kstp="1" mode="normal"

 #Stressperiod Save Options

 BEGIN READING OUTPUT CONTROL FOR STRESS PERIOD 281
      ALL TIME STEPS WILL BE SAVED
      ALL TIME STEPS WILL BE SAVED

 END READING OUTPUT CONTROL FOR STRESS PERIOD 281


 PROCESSING STORAGE PERIOD DATA
 END PROCESSING STORAGE PERIOD DATA


 STRESS PERIOD 281 IS TRANSIENT


 REUSING WELS FROM LAST STRESS PERIOD

 REUSING DRNS FROM LAST STRESS PERIOD

 REUSING RIVS FROM LAST STRESS PERIOD

 REUSING RIVS FROM LAST STRESS PERIOD

 REUSING RCHS FROM LAST STRESS PERIOD
 UBDSV06 SAVING              DRN IN MODEL GWF_1            PACKAGE GWF_1           CONNECTED TO MODEL GWF_1            PACKAGE DRN_SYS1         ON UNIT   1019 AT TIME STEP      1, STRESS PERIOD    281
 UBDSV06 SAVING              RIV IN MODEL GWF_1            PACKAGE GWF_1           CONNECTED TO MODEL GWF_1            PACKAGE RIV_SYS1         ON UNIT   1019 AT TIME STEP      1, STRESS PERIOD    281
 UBDSV06 SAVING              RIV IN MODEL GWF_1            PACKAGE GWF_1           CONNECTED TO MODEL GWF_1            PACKAGE RIV_SYS2         ON UNIT   1019 AT TIME STEP      1, STRESS PERIOD    281

 HEAD WILL BE SAVED ON UNIT 1018 AT END OF TIME STEP    1, STRESS PERIOD  281


  VOLUME BUDGET FOR ENTIRE MODEL AT END OF TIME STEP    1, STRESS PERIOD 281
  ---------------------------------------------------------------------------------------------------

     CUMULATIVE VOLUME      L**3       RATES FOR THIS TIME STEP      L**3/T          PACKAGE NAME    
     ------------------                 ------------------------                     ----------------

           IN:                                      IN:
           ---                                      ---
              STO-SS =      227754.5374                STO-SS =        1482.8752     STORAGE                          
                 WEL =      253543.5626                   WEL =         441.3428     RIV_CORR                         
                 DRN =           0.0000                   DRN =           0.0000     DRN_SYS1                         
                 RIV =      246173.5019                   RIV =         490.0723     RIV_SYS1                         
                 RIV =           0.0000                   RIV =           0.0000     RIV_SYS2                         
                 RCH =      420288.8057                   RCH =        1082.0539     RCH_MSW                          

            TOTAL IN =     1147760.4076              TOTAL IN =        3496.3442

          OUT:                                     OUT:
          ----                                     ----
              STO-SS =      181848.4441                STO-SS =           0.0000     STORAGE                          
                 WEL =      289596.0334                   WEL =        1200.7549     RIV_CORR                         
                 DRN =       71425.1218                   DRN =         287.4228     DRN_SYS1                         
                 RIV =      279684.1355                   RIV =        1101.7457     RIV_SYS1                         
                 RIV =      192664.9199                   RIV =         764.5135     RIV_SYS2                         
                 RCH =      132544.9222                   RCH =         141.8880     RCH_MSW                          

           TOTAL OUT =     1147763.5769             TOTAL OUT =        3496.3250

            IN - OUT =          -3.1693              IN - OUT =       1.9223E-02

 PERCENT DISCREPANCY =          -0.00     PERCENT DISCREPANCY =           0.00




         TIME SUMMARY AT END OF TIME STEP    1 IN STRESS PERIOD  281
                    SECONDS     MINUTES      HOURS       DAYS        YEARS
                    -----------------------------------------------------------
   TIME STEP LENGTH  86400.      1440.0      24.000      1.0000     2.73785E-03
 STRESS PERIOD TIME  86400.      1440.0      24.000      1.0000     2.73785E-03
         TOTAL TIME 2.42784E+07 4.04640E+05  6744.0      281.00     0.76934    


end timestep


start timestep kper="282" kstp="1" mode="normal"

 #Stressperiod Save Options

 BEGIN READING OUTPUT CONTROL FOR STRESS PERIOD 282
      ALL TIME STEPS WILL BE SAVED
      ALL TIME STEPS WILL BE SAVED

 END READING OUTPUT CONTROL FOR STRESS PERIOD 282


 PROCESSING STORAGE PERIOD DATA
 END PROCESSING STORAGE PERIOD DATA


 STRESS PERIOD 282 IS TRANSIENT


 REUSING WELS FROM LAST STRESS PERIOD

 REUSING DRNS FROM LAST STRESS PERIOD

 REUSING RIVS FROM LAST STRESS PERIOD

 REUSING RIVS FROM LAST STRESS PERIOD

 REUSING RCHS FROM LAST STRESS PERIOD
 UBDSV06 SAVING              DRN IN MODEL GWF_1            PACKAGE GWF_1           CONNECTED TO MODEL GWF_1            PACKAGE DRN_SYS1         ON UNIT   1019 AT TIME STEP      1, STRESS PERIOD    282
 UBDSV06 SAVING              RIV IN MODEL GWF_1            PACKAGE GWF_1           CONNECTED TO MODEL GWF_1            PACKAGE RIV_SYS1         ON UNIT   1019 AT TIME STEP      1, STRESS PERIOD    282
 UBDSV06 SAVING              RIV IN MODEL GWF_1            PACKAGE GWF_1           CONNECTED TO MODEL GWF_1            PACKAGE RIV_SYS2         ON UNIT   1019 AT TIME STEP      1, STRESS PERIOD    282

 HEAD WILL BE SAVED ON UNIT 1018 AT END OF TIME STEP    1, STRESS PERIOD  282


  VOLUME BUDGET FOR ENTIRE MODEL AT END OF TIME STEP    1, STRESS PERIOD 282
  ---------------------------------------------------------------------------------------------------

     CUMULATIVE VOLUME      L**3       RATES FOR THIS TIME STEP      L**3/T          PACKAGE NAME    
     ------------------                 ------------------------                     ----------------

           IN:                                      IN:
           ---                                      ---
              STO-SS =      229380.5757                STO-SS =        1626.0383     STORAGE                          
                 WEL =      254033.6349                   WEL =         490.0723     RIV_CORR                         
                 DRN =           0.0000                   DRN =           0.0000     DRN_SYS1                         
                 RIV =      246724.8890                   RIV =         551.3871     RIV_SYS1                         
                 RIV =           0.0000                   RIV =           0.0000     RIV_SYS2                         
                 RCH =      421063.9103                   RCH =         775.1046     RCH_MSW                          

            TOTAL IN =     1151203.0099              TOTAL IN =        3442.6023

          OUT:                                     OUT:
          ----                                     ----
              STO-SS =      181848.8160                STO-SS =           0.3719     STORAGE                          
                 WEL =      290697.7791                   WEL =        1101.7457     RIV_CORR                         
                 DRN =       71708.9813                   DRN =         283.8595     DRN_SYS1                         
                 RIV =      280727.7472                   RIV =        1043.6117     RIV_SYS1                         
                 RIV =      193420.8818                   RIV =         755.9618     RIV_SYS2                         
                 RCH =      132801.9870                   RCH =         257.0648     RCH_MSW                          

           TOTAL OUT =     1151206.1923             TOTAL OUT =        3442.6154

            IN - OUT =          -3.1824              IN - OUT =      -1.3094E-02

 PERCENT DISCREPANCY =          -0.00     PERCENT DISCREPANCY =          -0.00




         TIME SUMMARY AT END OF TIME STEP    1 IN STRESS PERIOD  282
                    SECONDS     MINUTES      HOURS       DAYS        YEARS
                    -----------------------------------------------------------
   TIME STEP LENGTH  86400.      1440.0      24.000      1.0000     2.73785E-03
 STRESS PERIOD TIME  86400.      1440.0      24.000      1.0000     2.73785E-03
         TOTAL TIME 2.43648E+07 4.06080E+05  6768.0      282.00     0.77207    


end timestep


start timestep kper="283" kstp="1" mode="normal"

 #Stressperiod Save Options

 BEGIN READING OUTPUT CONTROL FOR STRESS PERIOD 283
      ALL TIME STEPS WILL BE SAVED
      ALL TIME STEPS WILL BE SAVED

 END READING OUTPUT CONTROL FOR STRESS PERIOD 283


 PROCESSING STORAGE PERIOD DATA
 END PROCESSING STORAGE PERIOD DATA


 STRESS PERIOD 283 IS TRANSIENT


 REUSING WELS FROM LAST STRESS PERIOD

 REUSING DRNS FROM LAST STRESS PERIOD

 REUSING RIVS FROM LAST STRESS PERIOD

 REUSING RIVS FROM LAST STRESS PERIOD

 REUSING RCHS FROM LAST STRESS PERIOD
 UBDSV06 SAVING              DRN IN MODEL GWF_1            PACKAGE GWF_1           CONNECTED TO MODEL GWF_1            PACKAGE DRN_SYS1         ON UNIT   1019 AT TIME STEP      1, STRESS PERIOD    283
 UBDSV06 SAVING              RIV IN MODEL GWF_1            PACKAGE GWF_1           CONNECTED TO MODEL GWF_1            PACKAGE RIV_SYS1         ON UNIT   1019 AT TIME STEP      1, STRESS PERIOD    283
 UBDSV06 SAVING              RIV IN MODEL GWF_1            PACKAGE GWF_1           CONNECTED TO MODEL GWF_1            PACKAGE RIV_SYS2         ON UNIT   1019 AT TIME STEP      1, STRESS PERIOD    283

 HEAD WILL BE SAVED ON UNIT 1018 AT END OF TIME STEP    1, STRESS PERIOD  283


  VOLUME BUDGET FOR ENTIRE MODEL AT END OF TIME STEP    1, STRESS PERIOD 283
  ---------------------------------------------------------------------------------------------------

     CUMULATIVE VOLUME      L**3       RATES FOR THIS TIME STEP      L**3/T          PACKAGE NAME    
     ------------------                 ------------------------                     ----------------

           IN:                                      IN:
           ---                                      ---
              STO-SS =      231032.7031                STO-SS =        1652.1274     STORAGE                          
                 WEL =      254585.0220                   WEL =         551.3871     RIV_CORR                         
                 DRN =           0.0000                   DRN =           0.0000     DRN_SYS1                         
                 RIV =      247317.8773                   RIV =         592.9883     RIV_SYS1                         
                 RIV =           0.0000                   RIV =           0.0000     RIV_SYS2                         
                 RCH =      421635.5360                   RCH =         571.6257     RCH_MSW                          

            TOTAL IN =     1154571.1384              TOTAL IN =        3368.1285

          OUT:                                     OUT:
          ----                                     ----
              STO-SS =      181848.8160                STO-SS =           0.0000     STORAGE                          
                 WEL =      291741.3908                   WEL =        1043.6117     RIV_CORR                         
                 DRN =       71989.3802                   DRN =         280.3989     DRN_SYS1                         
                 RIV =      281723.3460                   RIV =         995.5988     RIV_SYS1                         
                 RIV =      194168.3714                   RIV =         747.4896     RIV_SYS2                         
                 RCH =      133103.0044                   RCH =         301.0174     RCH_MSW                          

           TOTAL OUT =     1154574.3088             TOTAL OUT =        3368.1165

            IN - OUT =          -3.1704              IN - OUT =       1.2020E-02

 PERCENT DISCREPANCY =          -0.00     PERCENT DISCREPANCY =           0.00




         TIME SUMMARY AT END OF TIME STEP    1 IN STRESS PERIOD  283
                    SECONDS     MINUTES      HOURS       DAYS        YEARS
                    -----------------------------------------------------------
   TIME STEP LENGTH  86400.      1440.0      24.000      1.0000     2.73785E-03
 STRESS PERIOD TIME  86400.      1440.0      24.000      1.0000     2.73785E-03
         TOTAL TIME 2.44512E+07 4.07520E+05  6792.0      283.00     0.77481    


end timestep


start timestep kper="284" kstp="1" mode="normal"

 #Stressperiod Save Options

 BEGIN READING OUTPUT CONTROL FOR STRESS PERIOD 284
      ALL TIME STEPS WILL BE SAVED
      ALL TIME STEPS WILL BE SAVED

 END READING OUTPUT CONTROL FOR STRESS PERIOD 284


 PROCESSING STORAGE PERIOD DATA
 END PROCESSING STORAGE PERIOD DATA


 STRESS PERIOD 284 IS TRANSIENT


 REUSING WELS FROM LAST STRESS PERIOD

 REUSING DRNS FROM LAST STRESS PERIOD

 REUSING RIVS FROM LAST STRESS PERIOD

 REUSING RIVS FROM LAST STRESS PERIOD

 REUSING RCHS FROM LAST STRESS PERIOD
 UBDSV06 SAVING              DRN IN MODEL GWF_1            PACKAGE GWF_1           CONNECTED TO MODEL GWF_1            PACKAGE DRN_SYS1         ON UNIT   1019 AT TIME STEP      1, STRESS PERIOD    284
 UBDSV06 SAVING              RIV IN MODEL GWF_1            PACKAGE GWF_1           CONNECTED TO MODEL GWF_1            PACKAGE RIV_SYS1         ON UNIT   1019 AT TIME STEP      1, STRESS PERIOD    284
 UBDSV06 SAVING              RIV IN MODEL GWF_1            PACKAGE GWF_1           CONNECTED TO MODEL GWF_1            PACKAGE RIV_SYS2         ON UNIT   1019 AT TIME STEP      1, STRESS PERIOD    284

 HEAD WILL BE SAVED ON UNIT 1018 AT END OF TIME STEP    1, STRESS PERIOD  284


  VOLUME BUDGET FOR ENTIRE MODEL AT END OF TIME STEP    1, STRESS PERIOD 284
  ---------------------------------------------------------------------------------------------------

     CUMULATIVE VOLUME      L**3       RATES FOR THIS TIME STEP      L**3/T          PACKAGE NAME    
     ------------------                 ------------------------                     ----------------

           IN:                                      IN:
           ---                                      ---
              STO-SS =      232707.6279                STO-SS =        1674.9247     STORAGE                          
                 WEL =      255178.0103                   WEL =         592.9883     RIV_CORR                         
                 DRN =           0.0000                   DRN =           0.0000     DRN_SYS1                         
                 RIV =      247966.6791                   RIV =         648.8018     RIV_SYS1                         
                 RIV =           0.0000                   RIV =           0.0000     RIV_SYS2                         
                 RCH =      422064.0800                   RCH =         428.5440     RCH_MSW                          

            TOTAL IN =     1157916.3973              TOTAL IN =        3345.2589

          OUT:                                     OUT:
          ----                                     ----
              STO-SS =      181848.8160                STO-SS =           0.0000     STORAGE                          
                 WEL =      292736.9897                   WEL =         995.5988     RIV_CORR                         
                 DRN =       72266.4386                   DRN =         277.0584     DRN_SYS1                         
                 RIV =      282679.3246                   RIV =         955.9786     RIV_SYS1                         
                 RIV =      194907.5826                   RIV =         739.2112     RIV_SYS2                         
                 RCH =      133480.4864                   RCH =         377.4820     RCH_MSW                          

           TOTAL OUT =     1157919.6378             TOTAL OUT =        3345.3291

            IN - OUT =          -3.2405              IN - OUT =      -7.0125E-02

 PERCENT DISCREPANCY =          -0.00     PERCENT DISCREPANCY =          -0.00




         TIME SUMMARY AT END OF TIME STEP    1 IN STRESS PERIOD  284
                    SECONDS     MINUTES      HOURS       DAYS        YEARS
                    -----------------------------------------------------------
   TIME STEP LENGTH  86400.      1440.0      24.000      1.0000     2.73785E-03
 STRESS PERIOD TIME  86400.      1440.0      24.000      1.0000     2.73785E-03
         TOTAL TIME 2.45376E+07 4.08960E+05  6816.0      284.00     0.77755    


end timestep


start timestep kper="285" kstp="1" mode="normal"

 #Stressperiod Save Options

 BEGIN READING OUTPUT CONTROL FOR STRESS PERIOD 285
      ALL TIME STEPS WILL BE SAVED
      ALL TIME STEPS WILL BE SAVED

 END READING OUTPUT CONTROL FOR STRESS PERIOD 285


 PROCESSING STORAGE PERIOD DATA
 END PROCESSING STORAGE PERIOD DATA


 STRESS PERIOD 285 IS TRANSIENT


 REUSING WELS FROM LAST STRESS PERIOD

 REUSING DRNS FROM LAST STRESS PERIOD

 REUSING RIVS FROM LAST STRESS PERIOD

 REUSING RIVS FROM LAST STRESS PERIOD

 REUSING RCHS FROM LAST STRESS PERIOD
 UBDSV06 SAVING              DRN IN MODEL GWF_1            PACKAGE GWF_1           CONNECTED TO MODEL GWF_1            PACKAGE DRN_SYS1         ON UNIT   1019 AT TIME STEP      1, STRESS PERIOD    285
 UBDSV06 SAVING              RIV IN MODEL GWF_1            PACKAGE GWF_1           CONNECTED TO MODEL GWF_1            PACKAGE RIV_SYS1         ON UNIT   1019 AT TIME STEP      1, STRESS PERIOD    285
 UBDSV06 SAVING              RIV IN MODEL GWF_1            PACKAGE GWF_1           CONNECTED TO MODEL GWF_1            PACKAGE RIV_SYS2         ON UNIT   1019 AT TIME STEP      1, STRESS PERIOD    285

 HEAD WILL BE SAVED ON UNIT 1018 AT END OF TIME STEP    1, STRESS PERIOD  285


  VOLUME BUDGET FOR ENTIRE MODEL AT END OF TIME STEP    1, STRESS PERIOD 285
  ---------------------------------------------------------------------------------------------------

     CUMULATIVE VOLUME      L**3       RATES FOR THIS TIME STEP      L**3/T          PACKAGE NAME    
     ------------------                 ------------------------                     ----------------

           IN:                                      IN:
           ---                                      ---
              STO-SS =      234333.0327                STO-SS =        1625.4048     STORAGE                          
                 WEL =      255826.8121                   WEL =         648.8018     RIV_CORR                         
                 DRN =           0.0000                   DRN =           0.0000     DRN_SYS1                         
                 RIV =      248644.8130                   RIV =         678.1339     RIV_SYS1                         
                 RIV =           0.0000                   RIV =           0.0000     RIV_SYS2                         
                 RCH =      422391.5030                   RCH =         327.4230     RCH_MSW                          

            TOTAL IN =     1161196.1608              TOTAL IN =        3279.7635

          OUT:                                     OUT:
          ----                                     ----
              STO-SS =      181848.9673                STO-SS =           0.1513     STORAGE                          
                 WEL =      293692.9683                   WEL =         955.9786     RIV_CORR                         
                 DRN =       72540.3178                   DRN =         273.8792     DRN_SYS1                         
                 RIV =      283604.6390                   RIV =         925.3144     RIV_SYS1                         
                 RIV =      195638.9132                   RIV =         731.3306     RIV_SYS2                         
                 RCH =      133873.6000                   RCH =         393.1136     RCH_MSW                          

           TOTAL OUT =     1161199.4056             TOTAL OUT =        3279.7677

            IN - OUT =          -3.2448              IN - OUT =      -4.2433E-03

 PERCENT DISCREPANCY =          -0.00     PERCENT DISCREPANCY =          -0.00




         TIME SUMMARY AT END OF TIME STEP    1 IN STRESS PERIOD  285
                    SECONDS     MINUTES      HOURS       DAYS        YEARS
                    -----------------------------------------------------------
   TIME STEP LENGTH  86400.      1440.0      24.000      1.0000     2.73785E-03
 STRESS PERIOD TIME  86400.      1440.0      24.000      1.0000     2.73785E-03
         TOTAL TIME 2.46240E+07 4.10400E+05  6840.0      285.00     0.78029    


end timestep


start timestep kper="286" kstp="1" mode="normal"

 #Stressperiod Save Options

 BEGIN READING OUTPUT CONTROL FOR STRESS PERIOD 286
      ALL TIME STEPS WILL BE SAVED
      ALL TIME STEPS WILL BE SAVED

 END READING OUTPUT CONTROL FOR STRESS PERIOD 286


 PROCESSING STORAGE PERIOD DATA
 END PROCESSING STORAGE PERIOD DATA


 STRESS PERIOD 286 IS TRANSIENT


 REUSING WELS FROM LAST STRESS PERIOD

 REUSING DRNS FROM LAST STRESS PERIOD

 REUSING RIVS FROM LAST STRESS PERIOD

 REUSING RIVS FROM LAST STRESS PERIOD

 REUSING RCHS FROM LAST STRESS PERIOD
 UBDSV06 SAVING              DRN IN MODEL GWF_1            PACKAGE GWF_1           CONNECTED TO MODEL GWF_1            PACKAGE DRN_SYS1         ON UNIT   1019 AT TIME STEP      1, STRESS PERIOD    286
 UBDSV06 SAVING              RIV IN MODEL GWF_1            PACKAGE GWF_1           CONNECTED TO MODEL GWF_1            PACKAGE RIV_SYS1         ON UNIT   1019 AT TIME STEP      1, STRESS PERIOD    286
 UBDSV06 SAVING              RIV IN MODEL GWF_1            PACKAGE GWF_1           CONNECTED TO MODEL GWF_1            PACKAGE RIV_SYS2         ON UNIT   1019 AT TIME STEP      1, STRESS PERIOD    286

 HEAD WILL BE SAVED ON UNIT 1018 AT END OF TIME STEP    1, STRESS PERIOD  286


  VOLUME BUDGET FOR ENTIRE MODEL AT END OF TIME STEP    1, STRESS PERIOD 286
  ---------------------------------------------------------------------------------------------------

     CUMULATIVE VOLUME      L**3       RATES FOR THIS TIME STEP      L**3/T          PACKAGE NAME    
     ------------------                 ------------------------                     ----------------

           IN:                                      IN:
           ---                                      ---
              STO-SS =      235941.7349                STO-SS =        1608.7022     STORAGE                          
                 WEL =      256504.9460                   WEL =         678.1339     RIV_CORR                         
                 DRN =           0.0000                   DRN =           0.0000     DRN_SYS1                         
                 RIV =      249379.1652                   RIV =         734.3522     RIV_SYS1                         
                 RIV =           0.0000                   RIV =           0.0000     RIV_SYS2                         
                 RCH =      422645.2469                   RCH =         253.7439     RCH_MSW                          

            TOTAL IN =     1164471.0930              TOTAL IN =        3274.9323

          OUT:                                     OUT:
          ----                                     ----
              STO-SS =      181848.9673                STO-SS =           0.0000     STORAGE                          
                 WEL =      294618.2827                   WEL =         925.3144     RIV_CORR                         
                 DRN =       72811.1607                   DRN =         270.8429     DRN_SYS1                         
                 RIV =      284504.8337                   RIV =         900.1947     RIV_SYS1                         
                 RIV =      196362.7316                   RIV =         723.8184     RIV_SYS2                         
                 RCH =      134328.4227                   RCH =         454.8227     RCH_MSW                          

           TOTAL OUT =     1164474.3987             TOTAL OUT =        3274.9931

            IN - OUT =          -3.3056              IN - OUT =      -6.0850E-02

 PERCENT DISCREPANCY =          -0.00     PERCENT DISCREPANCY =          -0.00




         TIME SUMMARY AT END OF TIME STEP    1 IN STRESS PERIOD  286
                    SECONDS     MINUTES      HOURS       DAYS        YEARS
                    -----------------------------------------------------------
   TIME STEP LENGTH  86400.      1440.0      24.000      1.0000     2.73785E-03
 STRESS PERIOD TIME  86400.      1440.0      24.000      1.0000     2.73785E-03
         TOTAL TIME 2.47104E+07 4.11840E+05  6864.0      286.00     0.78303    


end timestep


start timestep kper="287" kstp="1" mode="normal"

 #Stressperiod Save Options

 BEGIN READING OUTPUT CONTROL FOR STRESS PERIOD 287
      ALL TIME STEPS WILL BE SAVED
      ALL TIME STEPS WILL BE SAVED

 END READING OUTPUT CONTROL FOR STRESS PERIOD 287


 PROCESSING STORAGE PERIOD DATA
 END PROCESSING STORAGE PERIOD DATA


 STRESS PERIOD 287 IS TRANSIENT


 REUSING WELS FROM LAST STRESS PERIOD

 REUSING DRNS FROM LAST STRESS PERIOD

 REUSING RIVS FROM LAST STRESS PERIOD

 REUSING RIVS FROM LAST STRESS PERIOD

 REUSING RCHS FROM LAST STRESS PERIOD
 UBDSV06 SAVING              DRN IN MODEL GWF_1            PACKAGE GWF_1           CONNECTED TO MODEL GWF_1            PACKAGE DRN_SYS1         ON UNIT   1019 AT TIME STEP      1, STRESS PERIOD    287
 UBDSV06 SAVING              RIV IN MODEL GWF_1            PACKAGE GWF_1           CONNECTED TO MODEL GWF_1            PACKAGE RIV_SYS1         ON UNIT   1019 AT TIME STEP      1, STRESS PERIOD    287
 UBDSV06 SAVING              RIV IN MODEL GWF_1            PACKAGE GWF_1           CONNECTED TO MODEL GWF_1            PACKAGE RIV_SYS2         ON UNIT   1019 AT TIME STEP      1, STRESS PERIOD    287

 HEAD WILL BE SAVED ON UNIT 1018 AT END OF TIME STEP    1, STRESS PERIOD  287


  VOLUME BUDGET FOR ENTIRE MODEL AT END OF TIME STEP    1, STRESS PERIOD 287
  ---------------------------------------------------------------------------------------------------

     CUMULATIVE VOLUME      L**3       RATES FOR THIS TIME STEP      L**3/T          PACKAGE NAME    
     ------------------                 ------------------------                     ----------------

           IN:                                      IN:
           ---                                      ---
              STO-SS =      237505.7465                STO-SS =        1564.0116     STORAGE                          
                 WEL =      257239.2983                   WEL =         734.3522     RIV_CORR                         
                 DRN =           0.0000                   DRN =           0.0000     DRN_SYS1                         
                 RIV =      250153.6733                   RIV =         774.5081     RIV_SYS1                         
                 RIV =           0.0000                   RIV =           0.0000     RIV_SYS2                         
                 RCH =      422845.2003                   RCH =         199.9534     RCH_MSW                          

            TOTAL IN =     1167743.9183              TOTAL IN =        3272.8253

          OUT:                                     OUT:
          ----                                     ----
              STO-SS =      181848.9673                STO-SS =           0.0000     STORAGE                          
                 WEL =      295518.4774                   WEL =         900.1947     RIV_CORR                         
                 DRN =       73079.1110                   DRN =         267.9503     DRN_SYS1                         
                 RIV =      285382.0017                   RIV =         877.1680     RIV_SYS1                         
                 RIV =      197079.3951                   RIV =         716.6635     RIV_SYS2                         
                 RCH =      134839.2849                   RCH =         510.8621     RCH_MSW                          

           TOTAL OUT =     1167747.2374             TOTAL OUT =        3272.8387

            IN - OUT =          -3.3190              IN - OUT =      -1.3374E-02

 PERCENT DISCREPANCY =          -0.00     PERCENT DISCREPANCY =          -0.00




         TIME SUMMARY AT END OF TIME STEP    1 IN STRESS PERIOD  287
                    SECONDS     MINUTES      HOURS       DAYS        YEARS
                    -----------------------------------------------------------
   TIME STEP LENGTH  86400.      1440.0      24.000      1.0000     2.73785E-03
 STRESS PERIOD TIME  86400.      1440.0      24.000      1.0000     2.73785E-03
         TOTAL TIME 2.47968E+07 4.13280E+05  6888.0      287.00     0.78576    


end timestep


start timestep kper="288" kstp="1" mode="normal"

 #Stressperiod Save Options

 BEGIN READING OUTPUT CONTROL FOR STRESS PERIOD 288
      ALL TIME STEPS WILL BE SAVED
      ALL TIME STEPS WILL BE SAVED

 END READING OUTPUT CONTROL FOR STRESS PERIOD 288


 PROCESSING STORAGE PERIOD DATA
 END PROCESSING STORAGE PERIOD DATA


 STRESS PERIOD 288 IS TRANSIENT


 REUSING WELS FROM LAST STRESS PERIOD

 REUSING DRNS FROM LAST STRESS PERIOD

 REUSING RIVS FROM LAST STRESS PERIOD

 REUSING RIVS FROM LAST STRESS PERIOD

 REUSING RCHS FROM LAST STRESS PERIOD
 UBDSV06 SAVING              DRN IN MODEL GWF_1            PACKAGE GWF_1           CONNECTED TO MODEL GWF_1            PACKAGE DRN_SYS1         ON UNIT   1019 AT TIME STEP      1, STRESS PERIOD    288
 UBDSV06 SAVING              RIV IN MODEL GWF_1            PACKAGE GWF_1           CONNECTED TO MODEL GWF_1            PACKAGE RIV_SYS1         ON UNIT   1019 AT TIME STEP      1, STRESS PERIOD    288
 UBDSV06 SAVING              RIV IN MODEL GWF_1            PACKAGE GWF_1           CONNECTED TO MODEL GWF_1            PACKAGE RIV_SYS2         ON UNIT   1019 AT TIME STEP      1, STRESS PERIOD    288

 HEAD WILL BE SAVED ON UNIT 1018 AT END OF TIME STEP    1, STRESS PERIOD  288


  VOLUME BUDGET FOR ENTIRE MODEL AT END OF TIME STEP    1, STRESS PERIOD 288
  ---------------------------------------------------------------------------------------------------

     CUMULATIVE VOLUME      L**3       RATES FOR THIS TIME STEP      L**3/T          PACKAGE NAME    
     ------------------                 ------------------------                     ----------------

           IN:                                      IN:
           ---                                      ---
              STO-SS =      238986.5559                STO-SS =        1480.8094     STORAGE                          
                 WEL =      258013.8064                   WEL =         774.5081     RIV_CORR                         
                 DRN =           0.0000                   DRN =           0.0000     DRN_SYS1                         
                 RIV =      250949.8648                   RIV =         796.1915     RIV_SYS1                         
                 RIV =           0.0000                   RIV =           0.0000     RIV_SYS2                         
                 RCH =      423007.6003                   RCH =         162.4000     RCH_MSW                          

            TOTAL IN =     1170957.8274              TOTAL IN =        3213.9091

          OUT:                                     OUT:
          ----                                     ----
              STO-SS =      181849.2996                STO-SS =           0.3322     STORAGE                          
                 WEL =      296395.6454                   WEL =         877.1680     RIV_CORR                         
                 DRN =       73344.3317                   DRN =         265.2207     DRN_SYS1                         
                 RIV =      286241.8730                   RIV =         859.8713     RIV_SYS1                         
                 RIV =      197789.3161                   RIV =         709.9210     RIV_SYS2                         
                 RCH =      135340.6988                   RCH =         501.4140     RCH_MSW                          

           TOTAL OUT =     1170961.1646             TOTAL OUT =        3213.9272

            IN - OUT =          -3.3372              IN - OUT =      -1.8177E-02

 PERCENT DISCREPANCY =          -0.00     PERCENT DISCREPANCY =          -0.00




         TIME SUMMARY AT END OF TIME STEP    1 IN STRESS PERIOD  288
                    SECONDS     MINUTES      HOURS       DAYS        YEARS
                    -----------------------------------------------------------
   TIME STEP LENGTH  86400.      1440.0      24.000      1.0000     2.73785E-03
 STRESS PERIOD TIME  86400.      1440.0      24.000      1.0000     2.73785E-03
         TOTAL TIME 2.48832E+07 4.14720E+05  6912.0      288.00     0.78850    


end timestep


start timestep kper="289" kstp="1" mode="normal"

 #Stressperiod Save Options

 BEGIN READING OUTPUT CONTROL FOR STRESS PERIOD 289
      ALL TIME STEPS WILL BE SAVED
      ALL TIME STEPS WILL BE SAVED

 END READING OUTPUT CONTROL FOR STRESS PERIOD 289


 PROCESSING STORAGE PERIOD DATA
 END PROCESSING STORAGE PERIOD DATA


 STRESS PERIOD 289 IS TRANSIENT


 REUSING WELS FROM LAST STRESS PERIOD

 REUSING DRNS FROM LAST STRESS PERIOD

 REUSING RIVS FROM LAST STRESS PERIOD

 REUSING RIVS FROM LAST STRESS PERIOD

 REUSING RCHS FROM LAST STRESS PERIOD
 UBDSV06 SAVING              DRN IN MODEL GWF_1            PACKAGE GWF_1           CONNECTED TO MODEL GWF_1            PACKAGE DRN_SYS1         ON UNIT   1019 AT TIME STEP      1, STRESS PERIOD    289
 UBDSV06 SAVING              RIV IN MODEL GWF_1            PACKAGE GWF_1           CONNECTED TO MODEL GWF_1            PACKAGE RIV_SYS1         ON UNIT   1019 AT TIME STEP      1, STRESS PERIOD    289
 UBDSV06 SAVING              RIV IN MODEL GWF_1            PACKAGE GWF_1           CONNECTED TO MODEL GWF_1            PACKAGE RIV_SYS2         ON UNIT   1019 AT TIME STEP      1, STRESS PERIOD    289

 HEAD WILL BE SAVED ON UNIT 1018 AT END OF TIME STEP    1, STRESS PERIOD  289


  VOLUME BUDGET FOR ENTIRE MODEL AT END OF TIME STEP    1, STRESS PERIOD 289
  ---------------------------------------------------------------------------------------------------

     CUMULATIVE VOLUME      L**3       RATES FOR THIS TIME STEP      L**3/T          PACKAGE NAME    
     ------------------                 ------------------------                     ----------------

           IN:                                      IN:
           ---                                      ---
              STO-SS =      240387.3943                STO-SS =        1400.8385     STORAGE                          
                 WEL =      258809.9979                   WEL =         796.1915     RIV_CORR                         
                 DRN =           0.0000                   DRN =           0.0000     DRN_SYS1                         
                 RIV =      251768.6944                   RIV =         818.8295     RIV_SYS1                         
                 RIV =           0.0000                   RIV =           0.0000     RIV_SYS2                         
                 RCH =      423140.4601                   RCH =         132.8598     RCH_MSW                          

            TOTAL IN =     1174106.5467              TOTAL IN =        3148.7193

          OUT:                                     OUT:
          ----                                     ----
              STO-SS =      181849.4366                STO-SS =           0.1370     STORAGE                          
                 WEL =      297255.5167                   WEL =         859.8713     RIV_CORR                         
                 DRN =       73607.0084                   DRN =         262.6767     DRN_SYS1                         
                 RIV =      287086.2025                   RIV =         844.3295     RIV_SYS1                         
                 RIV =      198492.9178                   RIV =         703.6017     RIV_SYS2                         
                 RCH =      135818.8328                   RCH =         478.1340     RCH_MSW                          

           TOTAL OUT =     1174109.9148             TOTAL OUT =        3148.7502

            IN - OUT =          -3.3680              IN - OUT =      -3.0857E-02

 PERCENT DISCREPANCY =          -0.00     PERCENT DISCREPANCY =          -0.00




         TIME SUMMARY AT END OF TIME STEP    1 IN STRESS PERIOD  289
                    SECONDS     MINUTES      HOURS       DAYS        YEARS
                    -----------------------------------------------------------
   TIME STEP LENGTH  86400.      1440.0      24.000      1.0000     2.73785E-03
 STRESS PERIOD TIME  86400.      1440.0      24.000      1.0000     2.73785E-03
         TOTAL TIME 2.49696E+07 4.16160E+05  6936.0      289.00     0.79124    


end timestep


start timestep kper="290" kstp="1" mode="normal"

 #Stressperiod Save Options

 BEGIN READING OUTPUT CONTROL FOR STRESS PERIOD 290
      ALL TIME STEPS WILL BE SAVED
      ALL TIME STEPS WILL BE SAVED

 END READING OUTPUT CONTROL FOR STRESS PERIOD 290


 PROCESSING STORAGE PERIOD DATA
 END PROCESSING STORAGE PERIOD DATA


 STRESS PERIOD 290 IS TRANSIENT


 REUSING WELS FROM LAST STRESS PERIOD

 REUSING DRNS FROM LAST STRESS PERIOD

 REUSING RIVS FROM LAST STRESS PERIOD

 REUSING RIVS FROM LAST STRESS PERIOD

 REUSING RCHS FROM LAST STRESS PERIOD
 UBDSV06 SAVING              DRN IN MODEL GWF_1            PACKAGE GWF_1           CONNECTED TO MODEL GWF_1            PACKAGE DRN_SYS1         ON UNIT   1019 AT TIME STEP      1, STRESS PERIOD    290
 UBDSV06 SAVING              RIV IN MODEL GWF_1            PACKAGE GWF_1           CONNECTED TO MODEL GWF_1            PACKAGE RIV_SYS1         ON UNIT   1019 AT TIME STEP      1, STRESS PERIOD    290
 UBDSV06 SAVING              RIV IN MODEL GWF_1            PACKAGE GWF_1           CONNECTED TO MODEL GWF_1            PACKAGE RIV_SYS2         ON UNIT   1019 AT TIME STEP      1, STRESS PERIOD    290

 HEAD WILL BE SAVED ON UNIT 1018 AT END OF TIME STEP    1, STRESS PERIOD  290


  VOLUME BUDGET FOR ENTIRE MODEL AT END OF TIME STEP    1, STRESS PERIOD 290
  ---------------------------------------------------------------------------------------------------

     CUMULATIVE VOLUME      L**3       RATES FOR THIS TIME STEP      L**3/T          PACKAGE NAME    
     ------------------                 ------------------------                     ----------------

           IN:                                      IN:
           ---                                      ---
              STO-SS =      241744.8712                STO-SS =        1357.4768     STORAGE                          
                 WEL =      259628.8274                   WEL =         818.8295     RIV_CORR                         
                 DRN =           0.0000                   DRN =           0.0000     DRN_SYS1                         
                 RIV =      252630.7192                   RIV =         862.0249     RIV_SYS1                         
                 RIV =           0.0000                   RIV =           0.0000     RIV_SYS2                         
                 RCH =      423249.5972                   RCH =         109.1371     RCH_MSW                          

            TOTAL IN =     1177254.0151              TOTAL IN =        3147.4684

          OUT:                                     OUT:
          ----                                     ----
              STO-SS =      181849.4366                STO-SS =           0.0000     STORAGE                          
                 WEL =      298099.8461                   WEL =         844.3295     RIV_CORR                         
                 DRN =       73867.2937                   DRN =         260.2854     DRN_SYS1                         
                 RIV =      287916.8225                   RIV =         830.6200     RIV_SYS1                         
                 RIV =      199190.5769                   RIV =         697.6591     RIV_SYS2                         
                 RCH =      136333.4149                   RCH =         514.5821     RCH_MSW                          

           TOTAL OUT =     1177257.3908             TOTAL OUT =        3147.4760

            IN - OUT =          -3.3757              IN - OUT =      -7.6405E-03

 PERCENT DISCREPANCY =          -0.00     PERCENT DISCREPANCY =          -0.00




         TIME SUMMARY AT END OF TIME STEP    1 IN STRESS PERIOD  290
                    SECONDS     MINUTES      HOURS       DAYS        YEARS
                    -----------------------------------------------------------
   TIME STEP LENGTH  86400.      1440.0      24.000      1.0000     2.73785E-03
 STRESS PERIOD TIME  86400.      1440.0      24.000      1.0000     2.73785E-03
         TOTAL TIME 2.50560E+07 4.17600E+05  6960.0      290.00     0.79398    


end timestep


start timestep kper="291" kstp="1" mode="normal"

 #Stressperiod Save Options

 BEGIN READING OUTPUT CONTROL FOR STRESS PERIOD 291
      ALL TIME STEPS WILL BE SAVED
      ALL TIME STEPS WILL BE SAVED

 END READING OUTPUT CONTROL FOR STRESS PERIOD 291


 PROCESSING STORAGE PERIOD DATA
 END PROCESSING STORAGE PERIOD DATA


 STRESS PERIOD 291 IS TRANSIENT


 REUSING WELS FROM LAST STRESS PERIOD

 REUSING DRNS FROM LAST STRESS PERIOD

 REUSING RIVS FROM LAST STRESS PERIOD

 REUSING RIVS FROM LAST STRESS PERIOD

 REUSING RCHS FROM LAST STRESS PERIOD
 UBDSV06 SAVING              DRN IN MODEL GWF_1            PACKAGE GWF_1           CONNECTED TO MODEL GWF_1            PACKAGE DRN_SYS1         ON UNIT   1019 AT TIME STEP      1, STRESS PERIOD    291
 UBDSV06 SAVING              RIV IN MODEL GWF_1            PACKAGE GWF_1           CONNECTED TO MODEL GWF_1            PACKAGE RIV_SYS1         ON UNIT   1019 AT TIME STEP      1, STRESS PERIOD    291
 UBDSV06 SAVING              RIV IN MODEL GWF_1            PACKAGE GWF_1           CONNECTED TO MODEL GWF_1            PACKAGE RIV_SYS2         ON UNIT   1019 AT TIME STEP      1, STRESS PERIOD    291

 HEAD WILL BE SAVED ON UNIT 1018 AT END OF TIME STEP    1, STRESS PERIOD  291


  VOLUME BUDGET FOR ENTIRE MODEL AT END OF TIME STEP    1, STRESS PERIOD 291
  ---------------------------------------------------------------------------------------------------

     CUMULATIVE VOLUME      L**3       RATES FOR THIS TIME STEP      L**3/T          PACKAGE NAME    
     ------------------                 ------------------------                     ----------------

           IN:                                      IN:
           ---                                      ---
              STO-SS =      243037.2880                STO-SS =        1292.4168     STORAGE                          
                 WEL =      260490.8523                   WEL =         862.0249     RIV_CORR                         
                 DRN =           0.0000                   DRN =           0.0000     DRN_SYS1                         
                 RIV =      253519.6705                   RIV =         888.9513     RIV_SYS1                         
                 RIV =           0.0000                   RIV =           0.0000     RIV_SYS2                         
                 RCH =      423339.4027                   RCH =          89.8054     RCH_MSW                          

            TOTAL IN =     1180387.2134              TOTAL IN =        3133.1983

          OUT:                                     OUT:
          ----                                     ----
              STO-SS =      181849.5131                STO-SS =       7.6482E-02     STORAGE                          
                 WEL =      298930.4661                   WEL =         830.6200     RIV_CORR                         
                 DRN =       74125.3191                   DRN =         258.0254     DRN_SYS1                         
                 RIV =      288736.5001                   RIV =         819.6776     RIV_SYS1                         
                 RIV =      199882.6321                   RIV =         692.0552     RIV_SYS2                         
                 RCH =      136866.1942                   RCH =         532.7793     RCH_MSW                          

           TOTAL OUT =     1180390.6247             TOTAL OUT =        3133.2340

            IN - OUT =          -3.4113              IN - OUT =      -3.5610E-02

 PERCENT DISCREPANCY =          -0.00     PERCENT DISCREPANCY =          -0.00




         TIME SUMMARY AT END OF TIME STEP    1 IN STRESS PERIOD  291
                    SECONDS     MINUTES      HOURS       DAYS        YEARS
                    -----------------------------------------------------------
   TIME STEP LENGTH  86400.      1440.0      24.000      1.0000     2.73785E-03
 STRESS PERIOD TIME  86400.      1440.0      24.000      1.0000     2.73785E-03
         TOTAL TIME 2.51424E+07 4.19040E+05  6984.0      291.00     0.79671    


end timestep


start timestep kper="292" kstp="1" mode="normal"

 #Stressperiod Save Options

 BEGIN READING OUTPUT CONTROL FOR STRESS PERIOD 292
      ALL TIME STEPS WILL BE SAVED
      ALL TIME STEPS WILL BE SAVED

 END READING OUTPUT CONTROL FOR STRESS PERIOD 292


 PROCESSING STORAGE PERIOD DATA
 END PROCESSING STORAGE PERIOD DATA


 STRESS PERIOD 292 IS TRANSIENT


 REUSING WELS FROM LAST STRESS PERIOD

 REUSING DRNS FROM LAST STRESS PERIOD

 REUSING RIVS FROM LAST STRESS PERIOD

 REUSING RIVS FROM LAST STRESS PERIOD

 REUSING RCHS FROM LAST STRESS PERIOD
 UBDSV06 SAVING              DRN IN MODEL GWF_1            PACKAGE GWF_1           CONNECTED TO MODEL GWF_1            PACKAGE DRN_SYS1         ON UNIT   1019 AT TIME STEP      1, STRESS PERIOD    292
 UBDSV06 SAVING              RIV IN MODEL GWF_1            PACKAGE GWF_1           CONNECTED TO MODEL GWF_1            PACKAGE RIV_SYS1         ON UNIT   1019 AT TIME STEP      1, STRESS PERIOD    292
 UBDSV06 SAVING              RIV IN MODEL GWF_1            PACKAGE GWF_1           CONNECTED TO MODEL GWF_1            PACKAGE RIV_SYS2         ON UNIT   1019 AT TIME STEP      1, STRESS PERIOD    292

 HEAD WILL BE SAVED ON UNIT 1018 AT END OF TIME STEP    1, STRESS PERIOD  292


  VOLUME BUDGET FOR ENTIRE MODEL AT END OF TIME STEP    1, STRESS PERIOD 292
  ---------------------------------------------------------------------------------------------------

     CUMULATIVE VOLUME      L**3       RATES FOR THIS TIME STEP      L**3/T          PACKAGE NAME    
     ------------------                 ------------------------                     ----------------

           IN:                                      IN:
           ---                                      ---
              STO-SS =      244252.8595                STO-SS =        1215.5715     STORAGE                          
                 WEL =      261379.8035                   WEL =         888.9513     RIV_CORR                         
                 DRN =           0.0000                   DRN =           0.0000     DRN_SYS1                         
                 RIV =      254424.9507                   RIV =         905.2802     RIV_SYS1                         
                 RIV =           0.0000                   RIV =           0.0000     RIV_SYS2                         
                 RCH =      423414.1807                   RCH =          74.7781     RCH_MSW                          

            TOTAL IN =     1183471.7945              TOTAL IN =        3084.5810

          OUT:                                     OUT:
          ----                                     ----
              STO-SS =      181849.9063                STO-SS =           0.3933     STORAGE                          
                 WEL =      299750.1438                   WEL =         819.6776     RIV_CORR                         
                 DRN =       74381.2216                   DRN =         255.9025     DRN_SYS1                         
                 RIV =      289546.1315                   RIV =         809.6314     RIV_SYS1                         
                 RIV =      200569.4513                   RIV =         686.8192     RIV_SYS2                         
                 RCH =      137378.3753                   RCH =         512.1811     RCH_MSW                          

           TOTAL OUT =     1183475.2298             TOTAL OUT =        3084.6050

            IN - OUT =          -3.4353              IN - OUT =      -2.3987E-02

 PERCENT DISCREPANCY =          -0.00     PERCENT DISCREPANCY =          -0.00




         TIME SUMMARY AT END OF TIME STEP    1 IN STRESS PERIOD  292
                    SECONDS     MINUTES      HOURS       DAYS        YEARS
                    -----------------------------------------------------------
   TIME STEP LENGTH  86400.      1440.0      24.000      1.0000     2.73785E-03
 STRESS PERIOD TIME  86400.      1440.0      24.000      1.0000     2.73785E-03
         TOTAL TIME 2.52288E+07 4.20480E+05  7008.0      292.00     0.79945    


end timestep


start timestep kper="293" kstp="1" mode="normal"

 #Stressperiod Save Options

 BEGIN READING OUTPUT CONTROL FOR STRESS PERIOD 293
      ALL TIME STEPS WILL BE SAVED
      ALL TIME STEPS WILL BE SAVED

 END READING OUTPUT CONTROL FOR STRESS PERIOD 293


 PROCESSING STORAGE PERIOD DATA
 END PROCESSING STORAGE PERIOD DATA


 STRESS PERIOD 293 IS TRANSIENT


 REUSING WELS FROM LAST STRESS PERIOD

 REUSING DRNS FROM LAST STRESS PERIOD

 REUSING RIVS FROM LAST STRESS PERIOD

 REUSING RIVS FROM LAST STRESS PERIOD

 REUSING RCHS FROM LAST STRESS PERIOD
 UBDSV06 SAVING              DRN IN MODEL GWF_1            PACKAGE GWF_1           CONNECTED TO MODEL GWF_1            PACKAGE DRN_SYS1         ON UNIT   1019 AT TIME STEP      1, STRESS PERIOD    293
 UBDSV06 SAVING              RIV IN MODEL GWF_1            PACKAGE GWF_1           CONNECTED TO MODEL GWF_1            PACKAGE RIV_SYS1         ON UNIT   1019 AT TIME STEP      1, STRESS PERIOD    293
 UBDSV06 SAVING              RIV IN MODEL GWF_1            PACKAGE GWF_1           CONNECTED TO MODEL GWF_1            PACKAGE RIV_SYS2         ON UNIT   1019 AT TIME STEP      1, STRESS PERIOD    293

 HEAD WILL BE SAVED ON UNIT 1018 AT END OF TIME STEP    1, STRESS PERIOD  293


  VOLUME BUDGET FOR ENTIRE MODEL AT END OF TIME STEP    1, STRESS PERIOD 293
  ---------------------------------------------------------------------------------------------------

     CUMULATIVE VOLUME      L**3       RATES FOR THIS TIME STEP      L**3/T          PACKAGE NAME    
     ------------------                 ------------------------                     ----------------

           IN:                                      IN:
           ---                                      ---
              STO-SS =      245410.7898                STO-SS =        1157.9303     STORAGE                          
                 WEL =      262285.0837                   WEL =         905.2802     RIV_CORR                         
                 DRN =           0.0000                   DRN =           0.0000     DRN_SYS1                         
                 RIV =      255355.9547                   RIV =         931.0040     RIV_SYS1                         
                 RIV =           0.0000                   RIV =           0.0000     RIV_SYS2                         
                 RCH =      423476.3392                   RCH =          62.1585     RCH_MSW                          

            TOTAL IN =     1186528.1674              TOTAL IN =        3056.3730

          OUT:                                     OUT:
          ----                                     ----
              STO-SS =      181849.9063                STO-SS =           0.0000     STORAGE                          
                 WEL =      300559.7751                   WEL =         809.6314     RIV_CORR                         
                 DRN =       74635.1388                   DRN =         253.9173     DRN_SYS1                         
                 RIV =      290346.2599                   RIV =         800.1284     RIV_SYS1                         
                 RIV =      201251.3555                   RIV =         681.9042     RIV_SYS2                         
                 RCH =      137889.1833                   RCH =         510.8080     RCH_MSW                          

           TOTAL OUT =     1186531.6190             TOTAL OUT =        3056.3892

            IN - OUT =          -3.4515              IN - OUT =      -1.6253E-02

 PERCENT DISCREPANCY =          -0.00     PERCENT DISCREPANCY =          -0.00




         TIME SUMMARY AT END OF TIME STEP    1 IN STRESS PERIOD  293
                    SECONDS     MINUTES      HOURS       DAYS        YEARS
                    -----------------------------------------------------------
   TIME STEP LENGTH  86400.      1440.0      24.000      1.0000     2.73785E-03
 STRESS PERIOD TIME  86400.      1440.0      24.000      1.0000     2.73785E-03
         TOTAL TIME 2.53152E+07 4.21920E+05  7032.0      293.00     0.80219    


end timestep


start timestep kper="294" kstp="1" mode="normal"

 #Stressperiod Save Options

 BEGIN READING OUTPUT CONTROL FOR STRESS PERIOD 294
      ALL TIME STEPS WILL BE SAVED
      ALL TIME STEPS WILL BE SAVED

 END READING OUTPUT CONTROL FOR STRESS PERIOD 294


 PROCESSING STORAGE PERIOD DATA
 END PROCESSING STORAGE PERIOD DATA


 STRESS PERIOD 294 IS TRANSIENT


 REUSING WELS FROM LAST STRESS PERIOD

 REUSING DRNS FROM LAST STRESS PERIOD

 REUSING RIVS FROM LAST STRESS PERIOD

 REUSING RIVS FROM LAST STRESS PERIOD

 REUSING RCHS FROM LAST STRESS PERIOD
 UBDSV06 SAVING              DRN IN MODEL GWF_1            PACKAGE GWF_1           CONNECTED TO MODEL GWF_1            PACKAGE DRN_SYS1         ON UNIT   1019 AT TIME STEP      1, STRESS PERIOD    294
 UBDSV06 SAVING              RIV IN MODEL GWF_1            PACKAGE GWF_1           CONNECTED TO MODEL GWF_1            PACKAGE RIV_SYS1         ON UNIT   1019 AT TIME STEP      1, STRESS PERIOD    294
 UBDSV06 SAVING              RIV IN MODEL GWF_1            PACKAGE GWF_1           CONNECTED TO MODEL GWF_1            PACKAGE RIV_SYS2         ON UNIT   1019 AT TIME STEP      1, STRESS PERIOD    294

 HEAD WILL BE SAVED ON UNIT 1018 AT END OF TIME STEP    1, STRESS PERIOD  294


  VOLUME BUDGET FOR ENTIRE MODEL AT END OF TIME STEP    1, STRESS PERIOD 294
  ---------------------------------------------------------------------------------------------------

     CUMULATIVE VOLUME      L**3       RATES FOR THIS TIME STEP      L**3/T          PACKAGE NAME    
     ------------------                 ------------------------                     ----------------

           IN:                                      IN:
           ---                                      ---
              STO-SS =      246495.4101                STO-SS =        1084.6203     STORAGE                          
                 WEL =      263216.0877                   WEL =         931.0040     RIV_CORR                         
                 DRN =           0.0000                   DRN =           0.0000     DRN_SYS1                         
                 RIV =      256297.9537                   RIV =         941.9990     RIV_SYS1                         
                 RIV =           0.0000                   RIV =           0.0000     RIV_SYS2                         
                 RCH =      423528.9386                   RCH =          52.5994     RCH_MSW                          

            TOTAL IN =     1189538.3902              TOTAL IN =        3010.2227

          OUT:                                     OUT:
          ----                                     ----
              STO-SS =      181850.5781                STO-SS =           0.6718     STORAGE                          
                 WEL =      301359.9035                   WEL =         800.1284     RIV_CORR                         
                 DRN =       74887.1970                   DRN =         252.0582     DRN_SYS1                         
                 RIV =      291137.6992                   RIV =         791.4393     RIV_SYS1                         
                 RIV =      201928.6615                   RIV =         677.3060     RIV_SYS2                         
                 RCH =      138377.8251                   RCH =         488.6418     RCH_MSW                          

           TOTAL OUT =     1189541.8645             TOTAL OUT =        3010.2455

            IN - OUT =          -3.4743              IN - OUT =      -2.2806E-02

 PERCENT DISCREPANCY =          -0.00     PERCENT DISCREPANCY =          -0.00




         TIME SUMMARY AT END OF TIME STEP    1 IN STRESS PERIOD  294
                    SECONDS     MINUTES      HOURS       DAYS        YEARS
                    -----------------------------------------------------------
   TIME STEP LENGTH  86400.      1440.0      24.000      1.0000     2.73785E-03
 STRESS PERIOD TIME  86400.      1440.0      24.000      1.0000     2.73785E-03
         TOTAL TIME 2.54016E+07 4.23360E+05  7056.0      294.00     0.80493    


end timestep


start timestep kper="295" kstp="1" mode="normal"

 #Stressperiod Save Options

 BEGIN READING OUTPUT CONTROL FOR STRESS PERIOD 295
      ALL TIME STEPS WILL BE SAVED
      ALL TIME STEPS WILL BE SAVED

 END READING OUTPUT CONTROL FOR STRESS PERIOD 295


 PROCESSING STORAGE PERIOD DATA
 END PROCESSING STORAGE PERIOD DATA


 STRESS PERIOD 295 IS TRANSIENT


 REUSING WELS FROM LAST STRESS PERIOD

 REUSING DRNS FROM LAST STRESS PERIOD

 REUSING RIVS FROM LAST STRESS PERIOD

 REUSING RIVS FROM LAST STRESS PERIOD

 REUSING RCHS FROM LAST STRESS PERIOD
 UBDSV06 SAVING              DRN IN MODEL GWF_1            PACKAGE GWF_1           CONNECTED TO MODEL GWF_1            PACKAGE DRN_SYS1         ON UNIT   1019 AT TIME STEP      1, STRESS PERIOD    295
 UBDSV06 SAVING              RIV IN MODEL GWF_1            PACKAGE GWF_1           CONNECTED TO MODEL GWF_1            PACKAGE RIV_SYS1         ON UNIT   1019 AT TIME STEP      1, STRESS PERIOD    295
 UBDSV06 SAVING              RIV IN MODEL GWF_1            PACKAGE GWF_1           CONNECTED TO MODEL GWF_1            PACKAGE RIV_SYS2         ON UNIT   1019 AT TIME STEP      1, STRESS PERIOD    295

 HEAD WILL BE SAVED ON UNIT 1018 AT END OF TIME STEP    1, STRESS PERIOD  295


  VOLUME BUDGET FOR ENTIRE MODEL AT END OF TIME STEP    1, STRESS PERIOD 295
  ---------------------------------------------------------------------------------------------------

     CUMULATIVE VOLUME      L**3       RATES FOR THIS TIME STEP      L**3/T          PACKAGE NAME    
     ------------------                 ------------------------                     ----------------

           IN:                                      IN:
           ---                                      ---
              STO-SS =      247271.3285                STO-SS =         775.9184     STORAGE                          
                 WEL =      264158.0868                   WEL =         941.9990     RIV_CORR                         
                 DRN =           0.0000                   DRN =           0.0000     DRN_SYS1                         
                 RIV =      256939.6450                   RIV =         641.6913     RIV_SYS1                         
                 RIV =           0.0000                   RIV =           0.0000     RIV_SYS2                         
                 RCH =      424454.6070                   RCH =         925.6684     RCH_MSW                          

            TOTAL IN =     1192823.6672              TOTAL IN =        3285.2771

          OUT:                                     OUT:
          ----                                     ----
              STO-SS =      182298.9276                STO-SS =         448.3495     STORAGE                          
                 WEL =      302151.3428                   WEL =         791.4393     RIV_CORR                         
                 DRN =       75137.9234                   DRN =         250.7263     DRN_SYS1                         
                 RIV =      292060.0493                   RIV =         922.3501     RIV_SYS1                         
                 RIV =      202602.7312                   RIV =         674.0696     RIV_SYS2                         
                 RCH =      138576.1657                   RCH =         198.3407     RCH_MSW                          

           TOTAL OUT =     1192827.1400             TOTAL OUT =        3285.2755

            IN - OUT =          -3.4728              IN - OUT =       1.5496E-03

 PERCENT DISCREPANCY =          -0.00     PERCENT DISCREPANCY =           0.00




         TIME SUMMARY AT END OF TIME STEP    1 IN STRESS PERIOD  295
                    SECONDS     MINUTES      HOURS       DAYS        YEARS
                    -----------------------------------------------------------
   TIME STEP LENGTH  86400.      1440.0      24.000      1.0000     2.73785E-03
 STRESS PERIOD TIME  86400.      1440.0      24.000      1.0000     2.73785E-03
         TOTAL TIME 2.54880E+07 4.24800E+05  7080.0      295.00     0.80767    


end timestep


start timestep kper="296" kstp="1" mode="normal"

 #Stressperiod Save Options

 BEGIN READING OUTPUT CONTROL FOR STRESS PERIOD 296
      ALL TIME STEPS WILL BE SAVED
      ALL TIME STEPS WILL BE SAVED

 END READING OUTPUT CONTROL FOR STRESS PERIOD 296


 PROCESSING STORAGE PERIOD DATA
 END PROCESSING STORAGE PERIOD DATA


 STRESS PERIOD 296 IS TRANSIENT


 REUSING WELS FROM LAST STRESS PERIOD

 REUSING DRNS FROM LAST STRESS PERIOD

 REUSING RIVS FROM LAST STRESS PERIOD

 REUSING RIVS FROM LAST STRESS PERIOD

 REUSING RCHS FROM LAST STRESS PERIOD
 UBDSV06 SAVING              DRN IN MODEL GWF_1            PACKAGE GWF_1           CONNECTED TO MODEL GWF_1            PACKAGE DRN_SYS1         ON UNIT   1019 AT TIME STEP      1, STRESS PERIOD    296
 UBDSV06 SAVING              RIV IN MODEL GWF_1            PACKAGE GWF_1           CONNECTED TO MODEL GWF_1            PACKAGE RIV_SYS1         ON UNIT   1019 AT TIME STEP      1, STRESS PERIOD    296
 UBDSV06 SAVING              RIV IN MODEL GWF_1            PACKAGE GWF_1           CONNECTED TO MODEL GWF_1            PACKAGE RIV_SYS2         ON UNIT   1019 AT TIME STEP      1, STRESS PERIOD    296

 HEAD WILL BE SAVED ON UNIT 1018 AT END OF TIME STEP    1, STRESS PERIOD  296


  VOLUME BUDGET FOR ENTIRE MODEL AT END OF TIME STEP    1, STRESS PERIOD 296
  ---------------------------------------------------------------------------------------------------

     CUMULATIVE VOLUME      L**3       RATES FOR THIS TIME STEP      L**3/T          PACKAGE NAME    
     ------------------                 ------------------------                     ----------------

           IN:                                      IN:
           ---                                      ---
              STO-SS =      247904.7547                STO-SS =         633.4262     STORAGE                          
                 WEL =      264799.7781                   WEL =         641.6913     RIV_CORR                         
                 DRN =           0.0000                   DRN =           0.0000     DRN_SYS1                         
                 RIV =      257627.2928                   RIV =         687.6477     RIV_SYS1                         
                 RIV =           0.0000                   RIV =           0.0000     RIV_SYS2                         
                 RCH =      425511.2876                   RCH =        1056.6806     RCH_MSW                          

            TOTAL IN =     1195843.1131              TOTAL IN =        3019.4458

          OUT:                                     OUT:
          ----                                     ----
              STO-SS =      182554.5490                STO-SS =         255.6213     STORAGE                          
                 WEL =      303073.6929                   WEL =         922.3501     RIV_CORR                         
                 DRN =       75387.9097                   DRN =         249.9863     DRN_SYS1                         
                 RIV =      292881.1066                   RIV =         821.0573     RIV_SYS1                         
                 RIV =      203274.8429                   RIV =         672.1117     RIV_SYS2                         
                 RCH =      138674.5420                   RCH =          98.3763     RCH_MSW                          

           TOTAL OUT =     1195846.6431             TOTAL OUT =        3019.5031

            IN - OUT =          -3.5300              IN - OUT =      -5.7226E-02

 PERCENT DISCREPANCY =          -0.00     PERCENT DISCREPANCY =          -0.00




         TIME SUMMARY AT END OF TIME STEP    1 IN STRESS PERIOD  296
                    SECONDS     MINUTES      HOURS       DAYS        YEARS
                    -----------------------------------------------------------
   TIME STEP LENGTH  86400.      1440.0      24.000      1.0000     2.73785E-03
 STRESS PERIOD TIME  86400.      1440.0      24.000      1.0000     2.73785E-03
         TOTAL TIME 2.55744E+07 4.26240E+05  7104.0      296.00     0.81040    


end timestep


start timestep kper="297" kstp="1" mode="normal"

 #Stressperiod Save Options

 BEGIN READING OUTPUT CONTROL FOR STRESS PERIOD 297
      ALL TIME STEPS WILL BE SAVED
      ALL TIME STEPS WILL BE SAVED

 END READING OUTPUT CONTROL FOR STRESS PERIOD 297


 PROCESSING STORAGE PERIOD DATA
 END PROCESSING STORAGE PERIOD DATA


 STRESS PERIOD 297 IS TRANSIENT


 REUSING WELS FROM LAST STRESS PERIOD

 REUSING DRNS FROM LAST STRESS PERIOD

 REUSING RIVS FROM LAST STRESS PERIOD

 REUSING RIVS FROM LAST STRESS PERIOD

 REUSING RCHS FROM LAST STRESS PERIOD
 UBDSV06 SAVING              DRN IN MODEL GWF_1            PACKAGE GWF_1           CONNECTED TO MODEL GWF_1            PACKAGE DRN_SYS1         ON UNIT   1019 AT TIME STEP      1, STRESS PERIOD    297
 UBDSV06 SAVING              RIV IN MODEL GWF_1            PACKAGE GWF_1           CONNECTED TO MODEL GWF_1            PACKAGE RIV_SYS1         ON UNIT   1019 AT TIME STEP      1, STRESS PERIOD    297
 UBDSV06 SAVING              RIV IN MODEL GWF_1            PACKAGE GWF_1           CONNECTED TO MODEL GWF_1            PACKAGE RIV_SYS2         ON UNIT   1019 AT TIME STEP      1, STRESS PERIOD    297

 HEAD WILL BE SAVED ON UNIT 1018 AT END OF TIME STEP    1, STRESS PERIOD  297


  VOLUME BUDGET FOR ENTIRE MODEL AT END OF TIME STEP    1, STRESS PERIOD 297
  ---------------------------------------------------------------------------------------------------

     CUMULATIVE VOLUME      L**3       RATES FOR THIS TIME STEP      L**3/T          PACKAGE NAME    
     ------------------                 ------------------------                     ----------------

           IN:                                      IN:
           ---                                      ---
              STO-SS =      248525.4785                STO-SS =         620.7238     STORAGE                          
                 WEL =      265487.4258                   WEL =         687.6477     RIV_CORR                         
                 DRN =           0.0000                   DRN =           0.0000     DRN_SYS1                         
                 RIV =      258418.1254                   RIV =         790.8327     RIV_SYS1                         
                 RIV =           0.0000                   RIV =           0.0000     RIV_SYS2                         
                 RCH =      426012.1518                   RCH =         500.8642     RCH_MSW                          

            TOTAL IN =     1198443.1815              TOTAL IN =        2600.0684

          OUT:                                     OUT:
          ----                                     ----
              STO-SS =      182575.6194                STO-SS =          21.0705     STORAGE                          
                 WEL =      303894.7502                   WEL =         821.0573     RIV_CORR                         
                 DRN =       75637.3012                   DRN =         249.3914     DRN_SYS1                         
                 RIV =      293671.7463                   RIV =         790.6397     RIV_SYS1                         
                 RIV =      203945.3182                   RIV =         670.4753     RIV_SYS2                         
                 RCH =      138722.0551                   RCH =          47.5131     RCH_MSW                          

           TOTAL OUT =     1198446.7904             TOTAL OUT =        2600.1473

            IN - OUT =          -3.6089              IN - OUT =      -7.8890E-02

 PERCENT DISCREPANCY =          -0.00     PERCENT DISCREPANCY =          -0.00




         TIME SUMMARY AT END OF TIME STEP    1 IN STRESS PERIOD  297
                    SECONDS     MINUTES      HOURS       DAYS        YEARS
                    -----------------------------------------------------------
   TIME STEP LENGTH  86400.      1440.0      24.000      1.0000     2.73785E-03
 STRESS PERIOD TIME  86400.      1440.0      24.000      1.0000     2.73785E-03
         TOTAL TIME 2.56608E+07 4.27680E+05  7128.0      297.00     0.81314    


end timestep


start timestep kper="298" kstp="1" mode="normal"

 #Stressperiod Save Options

 BEGIN READING OUTPUT CONTROL FOR STRESS PERIOD 298
      ALL TIME STEPS WILL BE SAVED
      ALL TIME STEPS WILL BE SAVED

 END READING OUTPUT CONTROL FOR STRESS PERIOD 298


 PROCESSING STORAGE PERIOD DATA
 END PROCESSING STORAGE PERIOD DATA


 STRESS PERIOD 298 IS TRANSIENT


 REUSING WELS FROM LAST STRESS PERIOD

 REUSING DRNS FROM LAST STRESS PERIOD

 REUSING RIVS FROM LAST STRESS PERIOD

 REUSING RIVS FROM LAST STRESS PERIOD

 REUSING RCHS FROM LAST STRESS PERIOD
 UBDSV06 SAVING              DRN IN MODEL GWF_1            PACKAGE GWF_1           CONNECTED TO MODEL GWF_1            PACKAGE DRN_SYS1         ON UNIT   1019 AT TIME STEP      1, STRESS PERIOD    298
 UBDSV06 SAVING              RIV IN MODEL GWF_1            PACKAGE GWF_1           CONNECTED TO MODEL GWF_1            PACKAGE RIV_SYS1         ON UNIT   1019 AT TIME STEP      1, STRESS PERIOD    298
 UBDSV06 SAVING              RIV IN MODEL GWF_1            PACKAGE GWF_1           CONNECTED TO MODEL GWF_1            PACKAGE RIV_SYS2         ON UNIT   1019 AT TIME STEP      1, STRESS PERIOD    298

 HEAD WILL BE SAVED ON UNIT 1018 AT END OF TIME STEP    1, STRESS PERIOD  298


  VOLUME BUDGET FOR ENTIRE MODEL AT END OF TIME STEP    1, STRESS PERIOD 298
  ---------------------------------------------------------------------------------------------------

     CUMULATIVE VOLUME      L**3       RATES FOR THIS TIME STEP      L**3/T          PACKAGE NAME    
     ------------------                 ------------------------                     ----------------

           IN:                                      IN:
           ---                                      ---
              STO-SS =      248821.2129                STO-SS =         295.7345     STORAGE                          
                 WEL =      266278.2585                   WEL =         790.8327     RIV_CORR                         
                 DRN =           0.0000                   DRN =           0.0000     DRN_SYS1                         
                 RIV =      258952.7105                   RIV =         534.5851     RIV_SYS1                         
                 RIV =           0.0000                   RIV =           0.0000     RIV_SYS2                         
                 RCH =      427890.2058                   RCH =        1878.0540     RCH_MSW                          

            TOTAL IN =     1201942.3877              TOTAL IN =        3499.2062

          OUT:                                     OUT:
          ----                                     ----
              STO-SS =      183309.2001                STO-SS =         733.5807     STORAGE                          
                 WEL =      304685.3899                   WEL =         790.6397     RIV_CORR                         
                 DRN =       75887.0871                   DRN =         249.7859     DRN_SYS1                         
                 RIV =      294725.8262                   RIV =        1054.0800     RIV_SYS1                         
                 RIV =      204616.3183                   RIV =         671.0001     RIV_SYS2                         
                 RCH =      138722.0551                   RCH =           0.0000     RCH_MSW                          

           TOTAL OUT =     1201945.8768             TOTAL OUT =        3499.0864

            IN - OUT =          -3.4891              IN - OUT =           0.1198

 PERCENT DISCREPANCY =          -0.00     PERCENT DISCREPANCY =           0.00




         TIME SUMMARY AT END OF TIME STEP    1 IN STRESS PERIOD  298
                    SECONDS     MINUTES      HOURS       DAYS        YEARS
                    -----------------------------------------------------------
   TIME STEP LENGTH  86400.      1440.0      24.000      1.0000     2.73785E-03
 STRESS PERIOD TIME  86400.      1440.0      24.000      1.0000     2.73785E-03
         TOTAL TIME 2.57472E+07 4.29120E+05  7152.0      298.00     0.81588    


end timestep


start timestep kper="299" kstp="1" mode="normal"

 #Stressperiod Save Options

 BEGIN READING OUTPUT CONTROL FOR STRESS PERIOD 299
      ALL TIME STEPS WILL BE SAVED
      ALL TIME STEPS WILL BE SAVED

 END READING OUTPUT CONTROL FOR STRESS PERIOD 299


 PROCESSING STORAGE PERIOD DATA
 END PROCESSING STORAGE PERIOD DATA


 STRESS PERIOD 299 IS TRANSIENT


 REUSING WELS FROM LAST STRESS PERIOD

 REUSING DRNS FROM LAST STRESS PERIOD

 REUSING RIVS FROM LAST STRESS PERIOD

 REUSING RIVS FROM LAST STRESS PERIOD

 REUSING RCHS FROM LAST STRESS PERIOD
 UBDSV06 SAVING              DRN IN MODEL GWF_1            PACKAGE GWF_1           CONNECTED TO MODEL GWF_1            PACKAGE DRN_SYS1         ON UNIT   1019 AT TIME STEP      1, STRESS PERIOD    299
 UBDSV06 SAVING              RIV IN MODEL GWF_1            PACKAGE GWF_1           CONNECTED TO MODEL GWF_1            PACKAGE RIV_SYS1         ON UNIT   1019 AT TIME STEP      1, STRESS PERIOD    299
 UBDSV06 SAVING              RIV IN MODEL GWF_1            PACKAGE GWF_1           CONNECTED TO MODEL GWF_1            PACKAGE RIV_SYS2         ON UNIT   1019 AT TIME STEP      1, STRESS PERIOD    299

 HEAD WILL BE SAVED ON UNIT 1018 AT END OF TIME STEP    1, STRESS PERIOD  299


  VOLUME BUDGET FOR ENTIRE MODEL AT END OF TIME STEP    1, STRESS PERIOD 299
  ---------------------------------------------------------------------------------------------------

     CUMULATIVE VOLUME      L**3       RATES FOR THIS TIME STEP      L**3/T          PACKAGE NAME    
     ------------------                 ------------------------                     ----------------

           IN:                                      IN:
           ---                                      ---
              STO-SS =      248821.2129                STO-SS =           0.0000     STORAGE                          
                 WEL =      266812.8436                   WEL =         534.5851     RIV_CORR                         
                 DRN =           0.0000                   DRN =           0.0000     DRN_SYS1                         
                 RIV =      259174.2323                   RIV =         221.5218     RIV_SYS1                         
                 RIV =           0.0000                   RIV =           0.0000     RIV_SYS2                         
                 RCH =      438369.5344                   RCH =       10479.3286     RCH_MSW                          

            TOTAL IN =     1213177.8231              TOTAL IN =       11235.4354

          OUT:                                     OUT:
          ----                                     ----
              STO-SS =      190078.4617                STO-SS =        6769.2616     STORAGE                          
                 WEL =      305739.4699                   WEL =        1054.0800     RIV_CORR                         
                 DRN =       76149.9193                   DRN =         262.8322     DRN_SYS1                         
                 RIV =      297176.4456                   RIV =        2450.6194     RIV_SYS1                         
                 RIV =      205314.9427                   RIV =         698.6244     RIV_SYS2                         
                 RCH =      138722.0551                   RCH =           0.0000     RCH_MSW                          

           TOTAL OUT =     1213181.2943             TOTAL OUT =       11235.4175

            IN - OUT =          -3.4712              IN - OUT =       1.7949E-02

 PERCENT DISCREPANCY =          -0.00     PERCENT DISCREPANCY =           0.00




         TIME SUMMARY AT END OF TIME STEP    1 IN STRESS PERIOD  299
                    SECONDS     MINUTES      HOURS       DAYS        YEARS
                    -----------------------------------------------------------
   TIME STEP LENGTH  86400.      1440.0      24.000      1.0000     2.73785E-03
 STRESS PERIOD TIME  86400.      1440.0      24.000      1.0000     2.73785E-03
         TOTAL TIME 2.58336E+07 4.30560E+05  7176.0      299.00     0.81862    


end timestep


start timestep kper="300" kstp="1" mode="normal"

 #Stressperiod Save Options

 BEGIN READING OUTPUT CONTROL FOR STRESS PERIOD 300
      ALL TIME STEPS WILL BE SAVED
      ALL TIME STEPS WILL BE SAVED

 END READING OUTPUT CONTROL FOR STRESS PERIOD 300


 PROCESSING STORAGE PERIOD DATA
 END PROCESSING STORAGE PERIOD DATA


 STRESS PERIOD 300 IS TRANSIENT


 REUSING WELS FROM LAST STRESS PERIOD

 REUSING DRNS FROM LAST STRESS PERIOD

 REUSING RIVS FROM LAST STRESS PERIOD

 REUSING RIVS FROM LAST STRESS PERIOD

 REUSING RCHS FROM LAST STRESS PERIOD
 UBDSV06 SAVING              DRN IN MODEL GWF_1            PACKAGE GWF_1           CONNECTED TO MODEL GWF_1            PACKAGE DRN_SYS1         ON UNIT   1019 AT TIME STEP      1, STRESS PERIOD    300
 UBDSV06 SAVING              RIV IN MODEL GWF_1            PACKAGE GWF_1           CONNECTED TO MODEL GWF_1            PACKAGE RIV_SYS1         ON UNIT   1019 AT TIME STEP      1, STRESS PERIOD    300
 UBDSV06 SAVING              RIV IN MODEL GWF_1            PACKAGE GWF_1           CONNECTED TO MODEL GWF_1            PACKAGE RIV_SYS2         ON UNIT   1019 AT TIME STEP      1, STRESS PERIOD    300

 HEAD WILL BE SAVED ON UNIT 1018 AT END OF TIME STEP    1, STRESS PERIOD  300


  VOLUME BUDGET FOR ENTIRE MODEL AT END OF TIME STEP    1, STRESS PERIOD 300
  ---------------------------------------------------------------------------------------------------

     CUMULATIVE VOLUME      L**3       RATES FOR THIS TIME STEP      L**3/T          PACKAGE NAME    
     ------------------                 ------------------------                     ----------------

           IN:                                      IN:
           ---                                      ---
              STO-SS =      250897.5631                STO-SS =        2076.3502     STORAGE                          
                 WEL =      267034.3653                   WEL =         221.5218     RIV_CORR                         
                 DRN =           0.0000                   DRN =           0.0000     DRN_SYS1                         
                 RIV =      259867.4228                   RIV =         693.1905     RIV_SYS1                         
                 RIV =           0.0000                   RIV =           0.0000     RIV_SYS2                         
                 RCH =      442244.3375                   RCH =        3874.8031     RCH_MSW                          

            TOTAL IN =     1220043.6888              TOTAL IN =        6865.8657

          OUT:                                     OUT:
          ----                                     ----
              STO-SS =      191728.3258                STO-SS =        1649.8641     STORAGE                          
                 WEL =      308190.0893                   WEL =        2450.6194     RIV_CORR                         
                 DRN =       76418.0889                   DRN =         268.1696     DRN_SYS1                         
                 RIV =      298260.6373                   RIV =        1084.1917     RIV_SYS1                         
                 RIV =      206027.5273                   RIV =         712.5846     RIV_SYS2                         
                 RCH =      139422.4840                   RCH =         700.4289     RCH_MSW                          

           TOTAL OUT =     1220047.1526             TOTAL OUT =        6865.8583

            IN - OUT =          -3.4638              IN - OUT =       7.3661E-03

 PERCENT DISCREPANCY =          -0.00     PERCENT DISCREPANCY =           0.00




         TIME SUMMARY AT END OF TIME STEP    1 IN STRESS PERIOD  300
                    SECONDS     MINUTES      HOURS       DAYS        YEARS
                    -----------------------------------------------------------
   TIME STEP LENGTH  86400.      1440.0      24.000      1.0000     2.73785E-03
 STRESS PERIOD TIME  86400.      1440.0      24.000      1.0000     2.73785E-03
         TOTAL TIME 2.59200E+07 4.32000E+05  7200.0      300.00     0.82136    


end timestep


start timestep kper="301" kstp="1" mode="normal"

 #Stressperiod Save Options

 BEGIN READING OUTPUT CONTROL FOR STRESS PERIOD 301
      ALL TIME STEPS WILL BE SAVED
      ALL TIME STEPS WILL BE SAVED

 END READING OUTPUT CONTROL FOR STRESS PERIOD 301


 PROCESSING STORAGE PERIOD DATA
 END PROCESSING STORAGE PERIOD DATA


 STRESS PERIOD 301 IS TRANSIENT


 REUSING WELS FROM LAST STRESS PERIOD

 REUSING DRNS FROM LAST STRESS PERIOD

 REUSING RIVS FROM LAST STRESS PERIOD

 REUSING RIVS FROM LAST STRESS PERIOD

 REUSING RCHS FROM LAST STRESS PERIOD
 UBDSV06 SAVING              DRN IN MODEL GWF_1            PACKAGE GWF_1           CONNECTED TO MODEL GWF_1            PACKAGE DRN_SYS1         ON UNIT   1019 AT TIME STEP      1, STRESS PERIOD    301
 UBDSV06 SAVING              RIV IN MODEL GWF_1            PACKAGE GWF_1           CONNECTED TO MODEL GWF_1            PACKAGE RIV_SYS1         ON UNIT   1019 AT TIME STEP      1, STRESS PERIOD    301
 UBDSV06 SAVING              RIV IN MODEL GWF_1            PACKAGE GWF_1           CONNECTED TO MODEL GWF_1            PACKAGE RIV_SYS2         ON UNIT   1019 AT TIME STEP      1, STRESS PERIOD    301

 HEAD WILL BE SAVED ON UNIT 1018 AT END OF TIME STEP    1, STRESS PERIOD  301


  VOLUME BUDGET FOR ENTIRE MODEL AT END OF TIME STEP    1, STRESS PERIOD 301
  ---------------------------------------------------------------------------------------------------

     CUMULATIVE VOLUME      L**3       RATES FOR THIS TIME STEP      L**3/T          PACKAGE NAME    
     ------------------                 ------------------------                     ----------------

           IN:                                      IN:
           ---                                      ---
              STO-SS =      251050.9802                STO-SS =         153.4171     STORAGE                          
                 WEL =      267727.5559                   WEL =         693.1905     RIV_CORR                         
                 DRN =           0.0000                   DRN =           0.0000     DRN_SYS1                         
                 RIV =      260243.3657                   RIV =         375.9429     RIV_SYS1                         
                 RIV =           0.0000                   RIV =           0.0000     RIV_SYS2                         
                 RCH =      445902.9033                   RCH =        3658.5658     RCH_MSW                          

            TOTAL IN =     1224924.8051              TOTAL IN =        4881.1163

          OUT:                                     OUT:
          ----                                     ----
              STO-SS =      193050.5239                STO-SS =        1322.1980     STORAGE                          
                 WEL =      309274.2809                   WEL =        1084.1917     RIV_CORR                         
                 DRN =       76688.6247                   DRN =         270.5358     DRN_SYS1                         
                 RIV =      299745.0088                   RIV =        1484.3715     RIV_SYS1                         
                 RIV =      206747.3738                   RIV =         719.8465     RIV_SYS2                         
                 RCH =      139422.4840                   RCH =           0.0000     RCH_MSW                          

           TOTAL OUT =     1224928.2960             TOTAL OUT =        4881.1435

            IN - OUT =          -3.4910              IN - OUT =      -2.7206E-02

 PERCENT DISCREPANCY =          -0.00     PERCENT DISCREPANCY =          -0.00




         TIME SUMMARY AT END OF TIME STEP    1 IN STRESS PERIOD  301
                    SECONDS     MINUTES      HOURS       DAYS        YEARS
                    -----------------------------------------------------------
   TIME STEP LENGTH  86400.      1440.0      24.000      1.0000     2.73785E-03
 STRESS PERIOD TIME  86400.      1440.0      24.000      1.0000     2.73785E-03
         TOTAL TIME 2.60064E+07 4.33440E+05  7224.0      301.00     0.82409    


end timestep


start timestep kper="302" kstp="1" mode="normal"

 #Stressperiod Save Options

 BEGIN READING OUTPUT CONTROL FOR STRESS PERIOD 302
      ALL TIME STEPS WILL BE SAVED
      ALL TIME STEPS WILL BE SAVED

 END READING OUTPUT CONTROL FOR STRESS PERIOD 302


 PROCESSING STORAGE PERIOD DATA
 END PROCESSING STORAGE PERIOD DATA


 STRESS PERIOD 302 IS TRANSIENT


 REUSING WELS FROM LAST STRESS PERIOD

 REUSING DRNS FROM LAST STRESS PERIOD

 REUSING RIVS FROM LAST STRESS PERIOD

 REUSING RIVS FROM LAST STRESS PERIOD

 REUSING RCHS FROM LAST STRESS PERIOD
 UBDSV06 SAVING              DRN IN MODEL GWF_1            PACKAGE GWF_1           CONNECTED TO MODEL GWF_1            PACKAGE DRN_SYS1         ON UNIT   1019 AT TIME STEP      1, STRESS PERIOD    302
 UBDSV06 SAVING              RIV IN MODEL GWF_1            PACKAGE GWF_1           CONNECTED TO MODEL GWF_1            PACKAGE RIV_SYS1         ON UNIT   1019 AT TIME STEP      1, STRESS PERIOD    302
 UBDSV06 SAVING              RIV IN MODEL GWF_1            PACKAGE GWF_1           CONNECTED TO MODEL GWF_1            PACKAGE RIV_SYS2         ON UNIT   1019 AT TIME STEP      1, STRESS PERIOD    302

 HEAD WILL BE SAVED ON UNIT 1018 AT END OF TIME STEP    1, STRESS PERIOD  302


  VOLUME BUDGET FOR ENTIRE MODEL AT END OF TIME STEP    1, STRESS PERIOD 302
  ---------------------------------------------------------------------------------------------------

     CUMULATIVE VOLUME      L**3       RATES FOR THIS TIME STEP      L**3/T          PACKAGE NAME    
     ------------------                 ------------------------                     ----------------

           IN:                                      IN:
           ---                                      ---
              STO-SS =      251064.8785                STO-SS =          13.8983     STORAGE                          
                 WEL =      268103.4987                   WEL =         375.9429     RIV_CORR                         
                 DRN =           0.0000                   DRN =           0.0000     DRN_SYS1                         
                 RIV =      260604.4747                   RIV =         361.1090     RIV_SYS1                         
                 RIV =           0.0000                   RIV =           0.0000     RIV_SYS2                         
                 RCH =      450738.2192                   RCH =        4835.3159     RCH_MSW                          

            TOTAL IN =     1230511.0711              TOTAL IN =        5586.2661

          OUT:                                     OUT:
          ----                                     ----
              STO-SS =      194695.3294                STO-SS =        1644.8055     STORAGE                          
                 WEL =      310758.6524                   WEL =        1484.3715     RIV_CORR                         
                 DRN =       76962.4504                   DRN =         273.8257     DRN_SYS1                         
                 RIV =      301199.5716                   RIV =        1454.5629     RIV_SYS1                         
                 RIV =      207476.1204                   RIV =         728.7466     RIV_SYS2                         
                 RCH =      139422.4840                   RCH =           0.0000     RCH_MSW                          

           TOTAL OUT =     1230514.6082             TOTAL OUT =        5586.3122

            IN - OUT =          -3.5371              IN - OUT =      -4.6133E-02

 PERCENT DISCREPANCY =          -0.00     PERCENT DISCREPANCY =          -0.00




         TIME SUMMARY AT END OF TIME STEP    1 IN STRESS PERIOD  302
                    SECONDS     MINUTES      HOURS       DAYS        YEARS
                    -----------------------------------------------------------
   TIME STEP LENGTH  86400.      1440.0      24.000      1.0000     2.73785E-03
 STRESS PERIOD TIME  86400.      1440.0      24.000      1.0000     2.73785E-03
         TOTAL TIME 2.60928E+07 4.34880E+05  7248.0      302.00     0.82683    


end timestep


start timestep kper="303" kstp="1" mode="normal"

 #Stressperiod Save Options

 BEGIN READING OUTPUT CONTROL FOR STRESS PERIOD 303
      ALL TIME STEPS WILL BE SAVED
      ALL TIME STEPS WILL BE SAVED

 END READING OUTPUT CONTROL FOR STRESS PERIOD 303


 PROCESSING STORAGE PERIOD DATA
 END PROCESSING STORAGE PERIOD DATA


 STRESS PERIOD 303 IS TRANSIENT


 REUSING WELS FROM LAST STRESS PERIOD

 REUSING DRNS FROM LAST STRESS PERIOD

 REUSING RIVS FROM LAST STRESS PERIOD

 REUSING RIVS FROM LAST STRESS PERIOD

 REUSING RCHS FROM LAST STRESS PERIOD
 UBDSV06 SAVING              DRN IN MODEL GWF_1            PACKAGE GWF_1           CONNECTED TO MODEL GWF_1            PACKAGE DRN_SYS1         ON UNIT   1019 AT TIME STEP      1, STRESS PERIOD    303
 UBDSV06 SAVING              RIV IN MODEL GWF_1            PACKAGE GWF_1           CONNECTED TO MODEL GWF_1            PACKAGE RIV_SYS1         ON UNIT   1019 AT TIME STEP      1, STRESS PERIOD    303
 UBDSV06 SAVING              RIV IN MODEL GWF_1            PACKAGE GWF_1           CONNECTED TO MODEL GWF_1            PACKAGE RIV_SYS2         ON UNIT   1019 AT TIME STEP      1, STRESS PERIOD    303

 HEAD WILL BE SAVED ON UNIT 1018 AT END OF TIME STEP    1, STRESS PERIOD  303


  VOLUME BUDGET FOR ENTIRE MODEL AT END OF TIME STEP    1, STRESS PERIOD 303
  ---------------------------------------------------------------------------------------------------

     CUMULATIVE VOLUME      L**3       RATES FOR THIS TIME STEP      L**3/T          PACKAGE NAME    
     ------------------                 ------------------------                     ----------------

           IN:                                      IN:
           ---                                      ---
              STO-SS =      251064.8785                STO-SS =           0.0000     STORAGE                          
                 WEL =      268464.6077                   WEL =         361.1090     RIV_CORR                         
                 DRN =           0.0000                   DRN =           0.0000     DRN_SYS1                         
                 RIV =      260736.8816                   RIV =         132.4070     RIV_SYS1                         
                 RIV =           0.0000                   RIV =           0.0000     RIV_SYS2                         
                 RCH =      468932.1425                   RCH =       18193.9233     RCH_MSW                          

            TOTAL IN =     1249198.5103              TOTAL IN =       18687.4392

          OUT:                                     OUT:
          ----                                     ----
              STO-SS =      207400.9888                STO-SS =       12705.6594     STORAGE                          
                 WEL =      312213.2153                   WEL =        1454.5629     RIV_CORR                         
                 DRN =       77263.9412                   DRN =         301.4908     DRN_SYS1                         
                 RIV =      304626.9413                   RIV =        3427.3697     RIV_SYS1                         
                 RIV =      208274.4708                   RIV =         798.3505     RIV_SYS2                         
                 RCH =      139422.4840                   RCH =           0.0000     RCH_MSW                          

           TOTAL OUT =     1249202.0415             TOTAL OUT =       18687.4333

            IN - OUT =          -3.5312              IN - OUT =       5.9643E-03

 PERCENT DISCREPANCY =          -0.00     PERCENT DISCREPANCY =           0.00




         TIME SUMMARY AT END OF TIME STEP    1 IN STRESS PERIOD  303
                    SECONDS     MINUTES      HOURS       DAYS        YEARS
                    -----------------------------------------------------------
   TIME STEP LENGTH  86400.      1440.0      24.000      1.0000     2.73785E-03
 STRESS PERIOD TIME  86400.      1440.0      24.000      1.0000     2.73785E-03
         TOTAL TIME 2.61792E+07 4.36320E+05  7272.0      303.00     0.82957    


end timestep


start timestep kper="304" kstp="1" mode="normal"

 #Stressperiod Save Options

 BEGIN READING OUTPUT CONTROL FOR STRESS PERIOD 304
      ALL TIME STEPS WILL BE SAVED
      ALL TIME STEPS WILL BE SAVED

 END READING OUTPUT CONTROL FOR STRESS PERIOD 304


 PROCESSING STORAGE PERIOD DATA
 END PROCESSING STORAGE PERIOD DATA


 STRESS PERIOD 304 IS TRANSIENT


 REUSING WELS FROM LAST STRESS PERIOD

 REUSING DRNS FROM LAST STRESS PERIOD

 REUSING RIVS FROM LAST STRESS PERIOD

 REUSING RIVS FROM LAST STRESS PERIOD

 REUSING RCHS FROM LAST STRESS PERIOD
 UBDSV06 SAVING              DRN IN MODEL GWF_1            PACKAGE GWF_1           CONNECTED TO MODEL GWF_1            PACKAGE DRN_SYS1         ON UNIT   1019 AT TIME STEP      1, STRESS PERIOD    304
 UBDSV06 SAVING              RIV IN MODEL GWF_1            PACKAGE GWF_1           CONNECTED TO MODEL GWF_1            PACKAGE RIV_SYS1         ON UNIT   1019 AT TIME STEP      1, STRESS PERIOD    304
 UBDSV06 SAVING              RIV IN MODEL GWF_1            PACKAGE GWF_1           CONNECTED TO MODEL GWF_1            PACKAGE RIV_SYS2         ON UNIT   1019 AT TIME STEP      1, STRESS PERIOD    304

 HEAD WILL BE SAVED ON UNIT 1018 AT END OF TIME STEP    1, STRESS PERIOD  304


  VOLUME BUDGET FOR ENTIRE MODEL AT END OF TIME STEP    1, STRESS PERIOD 304
  ---------------------------------------------------------------------------------------------------

     CUMULATIVE VOLUME      L**3       RATES FOR THIS TIME STEP      L**3/T          PACKAGE NAME    
     ------------------                 ------------------------                     ----------------

           IN:                                      IN:
           ---                                      ---
              STO-SS =      253385.8345                STO-SS =        2320.9560     STORAGE                          
                 WEL =      268597.0147                   WEL =         132.4070     RIV_CORR                         
                 DRN =           0.0000                   DRN =           0.0000     DRN_SYS1                         
                 RIV =      260977.7742                   RIV =         240.8926     RIV_SYS1                         
                 RIV =           0.0000                   RIV =           0.0000     RIV_SYS2                         
                 RCH =      481033.6263                   RCH =       12101.4837     RCH_MSW                          

            TOTAL IN =     1263994.2496              TOTAL IN =       14795.7393

          OUT:                                     OUT:
          ----                                     ----
              STO-SS =      213505.6534                STO-SS =        6104.6646     STORAGE                          
                 WEL =      315640.5850                   WEL =        3427.3697     RIV_CORR                         
                 DRN =       77582.5586                   DRN =         318.6174     DRN_SYS1                         
                 RIV =      306983.8355                   RIV =        2356.8942     RIV_SYS1                         
                 RIV =      209121.7571                   RIV =         847.2863     RIV_SYS2                         
                 RCH =      141163.3853                   RCH =        1740.9013     RCH_MSW                          

           TOTAL OUT =     1263997.7750             TOTAL OUT =       14795.7335

            IN - OUT =          -3.5253              IN - OUT =       5.8316E-03

 PERCENT DISCREPANCY =          -0.00     PERCENT DISCREPANCY =           0.00




         TIME SUMMARY AT END OF TIME STEP    1 IN STRESS PERIOD  304
                    SECONDS     MINUTES      HOURS       DAYS        YEARS
                    -----------------------------------------------------------
   TIME STEP LENGTH  86400.      1440.0      24.000      1.0000     2.73785E-03
 STRESS PERIOD TIME  86400.      1440.0      24.000      1.0000     2.73785E-03
         TOTAL TIME 2.62656E+07 4.37760E+05  7296.0      304.00     0.83231    


end timestep


start timestep kper="305" kstp="1" mode="normal"

 #Stressperiod Save Options

 BEGIN READING OUTPUT CONTROL FOR STRESS PERIOD 305
      ALL TIME STEPS WILL BE SAVED
      ALL TIME STEPS WILL BE SAVED

 END READING OUTPUT CONTROL FOR STRESS PERIOD 305


 PROCESSING STORAGE PERIOD DATA
 END PROCESSING STORAGE PERIOD DATA


 STRESS PERIOD 305 IS TRANSIENT


 REUSING WELS FROM LAST STRESS PERIOD

 REUSING DRNS FROM LAST STRESS PERIOD

 REUSING RIVS FROM LAST STRESS PERIOD

 REUSING RIVS FROM LAST STRESS PERIOD

 REUSING RCHS FROM LAST STRESS PERIOD
 UBDSV06 SAVING              DRN IN MODEL GWF_1            PACKAGE GWF_1           CONNECTED TO MODEL GWF_1            PACKAGE DRN_SYS1         ON UNIT   1019 AT TIME STEP      1, STRESS PERIOD    305
 UBDSV06 SAVING              RIV IN MODEL GWF_1            PACKAGE GWF_1           CONNECTED TO MODEL GWF_1            PACKAGE RIV_SYS1         ON UNIT   1019 AT TIME STEP      1, STRESS PERIOD    305
 UBDSV06 SAVING              RIV IN MODEL GWF_1            PACKAGE GWF_1           CONNECTED TO MODEL GWF_1            PACKAGE RIV_SYS2         ON UNIT   1019 AT TIME STEP      1, STRESS PERIOD    305

 HEAD WILL BE SAVED ON UNIT 1018 AT END OF TIME STEP    1, STRESS PERIOD  305


  VOLUME BUDGET FOR ENTIRE MODEL AT END OF TIME STEP    1, STRESS PERIOD 305
  ---------------------------------------------------------------------------------------------------

     CUMULATIVE VOLUME      L**3       RATES FOR THIS TIME STEP      L**3/T          PACKAGE NAME    
     ------------------                 ------------------------                     ----------------

           IN:                                      IN:
           ---                                      ---
              STO-SS =      255238.2198                STO-SS =        1852.3854     STORAGE                          
                 WEL =      268837.9073                   WEL =         240.8926     RIV_CORR                         
                 DRN =           0.0000                   DRN =           0.0000     DRN_SYS1                         
                 RIV =      261270.3133                   RIV =         292.5390     RIV_SYS1                         
                 RIV =           0.0000                   RIV =           0.0000     RIV_SYS2                         
                 RCH =      485451.9348                   RCH =        4418.3085     RCH_MSW                          

            TOTAL IN =     1270798.3751              TOTAL IN =        6804.1255

          OUT:                                     OUT:
          ----                                     ----
              STO-SS =      214805.6835                STO-SS =        1300.0302     STORAGE                          
                 WEL =      317997.4792                   WEL =        2356.8942     RIV_CORR                         
                 DRN =       77899.8347                   DRN =         317.2760     DRN_SYS1                         
                 RIV =      308915.1121                   RIV =        1931.2766     RIV_SYS1                         
                 RIV =      209970.0876                   RIV =         848.3305     RIV_SYS2                         
                 RCH =      141213.7156                   RCH =          50.3303     RCH_MSW                          

           TOTAL OUT =     1270801.9128             TOTAL OUT =        6804.1378

            IN - OUT =          -3.5376              IN - OUT =      -1.2303E-02

 PERCENT DISCREPANCY =          -0.00     PERCENT DISCREPANCY =          -0.00




         TIME SUMMARY AT END OF TIME STEP    1 IN STRESS PERIOD  305
                    SECONDS     MINUTES      HOURS       DAYS        YEARS
                    -----------------------------------------------------------
   TIME STEP LENGTH  86400.      1440.0      24.000      1.0000     2.73785E-03
 STRESS PERIOD TIME  86400.      1440.0      24.000      1.0000     2.73785E-03
         TOTAL TIME 2.63520E+07 4.39200E+05  7320.0      305.00     0.83504    


end timestep


start timestep kper="306" kstp="1" mode="normal"

 #Stressperiod Save Options

 BEGIN READING OUTPUT CONTROL FOR STRESS PERIOD 306
      ALL TIME STEPS WILL BE SAVED
      ALL TIME STEPS WILL BE SAVED

 END READING OUTPUT CONTROL FOR STRESS PERIOD 306


 PROCESSING STORAGE PERIOD DATA
 END PROCESSING STORAGE PERIOD DATA


 STRESS PERIOD 306 IS TRANSIENT


 REUSING WELS FROM LAST STRESS PERIOD

 REUSING DRNS FROM LAST STRESS PERIOD

 REUSING RIVS FROM LAST STRESS PERIOD

 REUSING RIVS FROM LAST STRESS PERIOD

 REUSING RCHS FROM LAST STRESS PERIOD
 UBDSV06 SAVING              DRN IN MODEL GWF_1            PACKAGE GWF_1           CONNECTED TO MODEL GWF_1            PACKAGE DRN_SYS1         ON UNIT   1019 AT TIME STEP      1, STRESS PERIOD    306
 UBDSV06 SAVING              RIV IN MODEL GWF_1            PACKAGE GWF_1           CONNECTED TO MODEL GWF_1            PACKAGE RIV_SYS1         ON UNIT   1019 AT TIME STEP      1, STRESS PERIOD    306
 UBDSV06 SAVING              RIV IN MODEL GWF_1            PACKAGE GWF_1           CONNECTED TO MODEL GWF_1            PACKAGE RIV_SYS2         ON UNIT   1019 AT TIME STEP      1, STRESS PERIOD    306

 HEAD WILL BE SAVED ON UNIT 1018 AT END OF TIME STEP    1, STRESS PERIOD  306


  VOLUME BUDGET FOR ENTIRE MODEL AT END OF TIME STEP    1, STRESS PERIOD 306
  ---------------------------------------------------------------------------------------------------

     CUMULATIVE VOLUME      L**3       RATES FOR THIS TIME STEP      L**3/T          PACKAGE NAME    
     ------------------                 ------------------------                     ----------------

           IN:                                      IN:
           ---                                      ---
              STO-SS =      257362.5165                STO-SS =        2124.2967     STORAGE                          
                 WEL =      269130.4463                   WEL =         292.5390     RIV_CORR                         
                 DRN =           0.0000                   DRN =           0.0000     DRN_SYS1                         
                 RIV =      261605.7832                   RIV =         335.4700     RIV_SYS1                         
                 RIV =           0.0000                   RIV =           0.0000     RIV_SYS2                         
                 RCH =      487814.2808                   RCH =        2362.3461     RCH_MSW                          

            TOTAL IN =     1275913.0269              TOTAL IN =        5114.6518

          OUT:                                     OUT:
          ----                                     ----
              STO-SS =      215090.4045                STO-SS =         284.7210     STORAGE                          
                 WEL =      319928.7558                   WEL =        1931.2766     RIV_CORR                         
                 DRN =       78212.5183                   DRN =         312.6837     DRN_SYS1                         
                 RIV =      310502.5121                   RIV =        1587.4000     RIV_SYS1                         
                 RIV =      210807.5763                   RIV =         837.4887     RIV_SYS2                         
                 RCH =      141374.8186                   RCH =         161.1029     RCH_MSW                          

           TOTAL OUT =     1275916.5856             TOTAL OUT =        5114.6729

            IN - OUT =          -3.5587              IN - OUT =      -2.1086E-02

 PERCENT DISCREPANCY =          -0.00     PERCENT DISCREPANCY =          -0.00




         TIME SUMMARY AT END OF TIME STEP    1 IN STRESS PERIOD  306
                    SECONDS     MINUTES      HOURS       DAYS        YEARS
                    -----------------------------------------------------------
   TIME STEP LENGTH  86400.      1440.0      24.000      1.0000     2.73785E-03
 STRESS PERIOD TIME  86400.      1440.0      24.000      1.0000     2.73785E-03
         TOTAL TIME 2.64384E+07 4.40640E+05  7344.0      306.00     0.83778    


end timestep


start timestep kper="307" kstp="1" mode="normal"

 #Stressperiod Save Options

 BEGIN READING OUTPUT CONTROL FOR STRESS PERIOD 307
      ALL TIME STEPS WILL BE SAVED
      ALL TIME STEPS WILL BE SAVED

 END READING OUTPUT CONTROL FOR STRESS PERIOD 307


 PROCESSING STORAGE PERIOD DATA
 END PROCESSING STORAGE PERIOD DATA


 STRESS PERIOD 307 IS TRANSIENT


 REUSING WELS FROM LAST STRESS PERIOD

 REUSING DRNS FROM LAST STRESS PERIOD

 REUSING RIVS FROM LAST STRESS PERIOD

 REUSING RIVS FROM LAST STRESS PERIOD

 REUSING RCHS FROM LAST STRESS PERIOD
 UBDSV06 SAVING              DRN IN MODEL GWF_1            PACKAGE GWF_1           CONNECTED TO MODEL GWF_1            PACKAGE DRN_SYS1         ON UNIT   1019 AT TIME STEP      1, STRESS PERIOD    307
 UBDSV06 SAVING              RIV IN MODEL GWF_1            PACKAGE GWF_1           CONNECTED TO MODEL GWF_1            PACKAGE RIV_SYS1         ON UNIT   1019 AT TIME STEP      1, STRESS PERIOD    307
 UBDSV06 SAVING              RIV IN MODEL GWF_1            PACKAGE GWF_1           CONNECTED TO MODEL GWF_1            PACKAGE RIV_SYS2         ON UNIT   1019 AT TIME STEP      1, STRESS PERIOD    307

 HEAD WILL BE SAVED ON UNIT 1018 AT END OF TIME STEP    1, STRESS PERIOD  307


  VOLUME BUDGET FOR ENTIRE MODEL AT END OF TIME STEP    1, STRESS PERIOD 307
  ---------------------------------------------------------------------------------------------------

     CUMULATIVE VOLUME      L**3       RATES FOR THIS TIME STEP      L**3/T          PACKAGE NAME    
     ------------------                 ------------------------                     ----------------

           IN:                                      IN:
           ---                                      ---
              STO-SS =      259608.9354                STO-SS =        2246.4189     STORAGE                          
                 WEL =      269465.9163                   WEL =         335.4700     RIV_CORR                         
                 DRN =           0.0000                   DRN =           0.0000     DRN_SYS1                         
                 RIV =      261963.2154                   RIV =         357.4322     RIV_SYS1                         
                 RIV =           0.0000                   RIV =           0.0000     RIV_SYS2                         
                 RCH =      489235.3230                   RCH =        1421.0422     RCH_MSW                          

            TOTAL IN =     1280273.3902              TOTAL IN =        4360.3632

          OUT:                                     OUT:
          ----                                     ----
              STO-SS =      215118.7696                STO-SS =          28.3651     STORAGE                          
                 WEL =      321516.1557                   WEL =        1587.4000     RIV_CORR                         
                 DRN =       78520.1143                   DRN =         307.5959     DRN_SYS1                         
                 RIV =      311963.8647                   RIV =        1461.3526     RIV_SYS1                         
                 RIV =      211631.7525                   RIV =         824.1761     RIV_SYS2                         
                 RCH =      141526.3107                   RCH =         151.4921     RCH_MSW                          

           TOTAL OUT =     1280276.9675             TOTAL OUT =        4360.3819

            IN - OUT =          -3.5774              IN - OUT =      -1.8658E-02

 PERCENT DISCREPANCY =          -0.00     PERCENT DISCREPANCY =          -0.00




         TIME SUMMARY AT END OF TIME STEP    1 IN STRESS PERIOD  307
                    SECONDS     MINUTES      HOURS       DAYS        YEARS
                    -----------------------------------------------------------
   TIME STEP LENGTH  86400.      1440.0      24.000      1.0000     2.73785E-03
 STRESS PERIOD TIME  86400.      1440.0      24.000      1.0000     2.73785E-03
         TOTAL TIME 2.65248E+07 4.42080E+05  7368.0      307.00     0.84052    


end timestep


start timestep kper="308" kstp="1" mode="normal"

 #Stressperiod Save Options

 BEGIN READING OUTPUT CONTROL FOR STRESS PERIOD 308
      ALL TIME STEPS WILL BE SAVED
      ALL TIME STEPS WILL BE SAVED

 END READING OUTPUT CONTROL FOR STRESS PERIOD 308


 PROCESSING STORAGE PERIOD DATA
 END PROCESSING STORAGE PERIOD DATA


 STRESS PERIOD 308 IS TRANSIENT


 REUSING WELS FROM LAST STRESS PERIOD

 REUSING DRNS FROM LAST STRESS PERIOD

 REUSING RIVS FROM LAST STRESS PERIOD

 REUSING RIVS FROM LAST STRESS PERIOD

 REUSING RCHS FROM LAST STRESS PERIOD
 UBDSV06 SAVING              DRN IN MODEL GWF_1            PACKAGE GWF_1           CONNECTED TO MODEL GWF_1            PACKAGE DRN_SYS1         ON UNIT   1019 AT TIME STEP      1, STRESS PERIOD    308
 UBDSV06 SAVING              RIV IN MODEL GWF_1            PACKAGE GWF_1           CONNECTED TO MODEL GWF_1            PACKAGE RIV_SYS1         ON UNIT   1019 AT TIME STEP      1, STRESS PERIOD    308
 UBDSV06 SAVING              RIV IN MODEL GWF_1            PACKAGE GWF_1           CONNECTED TO MODEL GWF_1            PACKAGE RIV_SYS2         ON UNIT   1019 AT TIME STEP      1, STRESS PERIOD    308

 HEAD WILL BE SAVED ON UNIT 1018 AT END OF TIME STEP    1, STRESS PERIOD  308


  VOLUME BUDGET FOR ENTIRE MODEL AT END OF TIME STEP    1, STRESS PERIOD 308
  ---------------------------------------------------------------------------------------------------

     CUMULATIVE VOLUME      L**3       RATES FOR THIS TIME STEP      L**3/T          PACKAGE NAME    
     ------------------                 ------------------------                     ----------------

           IN:                                      IN:
           ---                                      ---
              STO-SS =      261976.7563                STO-SS =        2367.8208     STORAGE                          
                 WEL =      269823.3485                   WEL =         357.4322     RIV_CORR                         
                 DRN =           0.0000                   DRN =           0.0000     DRN_SYS1                         
                 RIV =      262357.3131                   RIV =         394.0976     RIV_SYS1                         
                 RIV =           0.0000                   RIV =           0.0000     RIV_SYS2                         
                 RCH =      490169.2817                   RCH =         933.9587     RCH_MSW                          

            TOTAL IN =     1284326.6995              TOTAL IN =        4053.3094

          OUT:                                     OUT:
          ----                                     ----
              STO-SS =      215118.7696                STO-SS =           0.0000     STORAGE                          
                 WEL =      322977.5084                   WEL =        1461.3526     RIV_CORR                         
                 DRN =       78822.7544                   DRN =         302.6401     DRN_SYS1                         
                 RIV =      313270.3086                   RIV =        1306.4439     RIV_SYS1                         
                 RIV =      212442.5394                   RIV =         810.7870     RIV_SYS2                         
                 RCH =      141698.4022                   RCH =         172.0915     RCH_MSW                          

           TOTAL OUT =     1284330.2826             TOTAL OUT =        4053.3151

            IN - OUT =          -3.5831              IN - OUT =      -5.7407E-03

 PERCENT DISCREPANCY =          -0.00     PERCENT DISCREPANCY =          -0.00




         TIME SUMMARY AT END OF TIME STEP    1 IN STRESS PERIOD  308
                    SECONDS     MINUTES      HOURS       DAYS        YEARS
                    -----------------------------------------------------------
   TIME STEP LENGTH  86400.      1440.0      24.000      1.0000     2.73785E-03
 STRESS PERIOD TIME  86400.      1440.0      24.000      1.0000     2.73785E-03
         TOTAL TIME 2.66112E+07 4.43520E+05  7392.0      308.00     0.84326    


end timestep


start timestep kper="309" kstp="1" mode="normal"

 #Stressperiod Save Options

 BEGIN READING OUTPUT CONTROL FOR STRESS PERIOD 309
      ALL TIME STEPS WILL BE SAVED
      ALL TIME STEPS WILL BE SAVED

 END READING OUTPUT CONTROL FOR STRESS PERIOD 309


 PROCESSING STORAGE PERIOD DATA
 END PROCESSING STORAGE PERIOD DATA


 STRESS PERIOD 309 IS TRANSIENT


 REUSING WELS FROM LAST STRESS PERIOD

 REUSING DRNS FROM LAST STRESS PERIOD

 REUSING RIVS FROM LAST STRESS PERIOD

 REUSING RIVS FROM LAST STRESS PERIOD

 REUSING RCHS FROM LAST STRESS PERIOD
 UBDSV06 SAVING              DRN IN MODEL GWF_1            PACKAGE GWF_1           CONNECTED TO MODEL GWF_1            PACKAGE DRN_SYS1         ON UNIT   1019 AT TIME STEP      1, STRESS PERIOD    309
 UBDSV06 SAVING              RIV IN MODEL GWF_1            PACKAGE GWF_1           CONNECTED TO MODEL GWF_1            PACKAGE RIV_SYS1         ON UNIT   1019 AT TIME STEP      1, STRESS PERIOD    309
 UBDSV06 SAVING              RIV IN MODEL GWF_1            PACKAGE GWF_1           CONNECTED TO MODEL GWF_1            PACKAGE RIV_SYS2         ON UNIT   1019 AT TIME STEP      1, STRESS PERIOD    309

 HEAD WILL BE SAVED ON UNIT 1018 AT END OF TIME STEP    1, STRESS PERIOD  309


  VOLUME BUDGET FOR ENTIRE MODEL AT END OF TIME STEP    1, STRESS PERIOD 309
  ---------------------------------------------------------------------------------------------------

     CUMULATIVE VOLUME      L**3       RATES FOR THIS TIME STEP      L**3/T          PACKAGE NAME    
     ------------------                 ------------------------                     ----------------

           IN:                                      IN:
           ---                                      ---
              STO-SS =      264296.7264                STO-SS =        2319.9702     STORAGE                          
                 WEL =      270217.4461                   WEL =         394.0976     RIV_CORR                         
                 DRN =           0.0000                   DRN =           0.0000     DRN_SYS1                         
                 RIV =      262773.0123                   RIV =         415.6992     RIV_SYS1                         
                 RIV =           0.0000                   RIV =           0.0000     RIV_SYS2                         
                 RCH =      490830.4428                   RCH =         661.1611     RCH_MSW                          

            TOTAL IN =     1288117.6276              TOTAL IN =        3790.9281

          OUT:                                     OUT:
          ----                                     ----
              STO-SS =      215120.2010                STO-SS =           1.4313     STORAGE                          
                 WEL =      324283.9523                   WEL =        1306.4439     RIV_CORR                         
                 DRN =       79120.6987                   DRN =         297.9443     DRN_SYS1                         
                 RIV =      314497.2047                   RIV =        1226.8960     RIV_SYS1                         
                 RIV =      213240.6131                   RIV =         798.0736     RIV_SYS2                         
                 RCH =      141858.5317                   RCH =         160.1295     RCH_MSW                          

           TOTAL OUT =     1288121.2013             TOTAL OUT =        3790.9187

            IN - OUT =          -3.5737              IN - OUT =       9.4007E-03

 PERCENT DISCREPANCY =          -0.00     PERCENT DISCREPANCY =           0.00




         TIME SUMMARY AT END OF TIME STEP    1 IN STRESS PERIOD  309
                    SECONDS     MINUTES      HOURS       DAYS        YEARS
                    -----------------------------------------------------------
   TIME STEP LENGTH  86400.      1440.0      24.000      1.0000     2.73785E-03
 STRESS PERIOD TIME  86400.      1440.0      24.000      1.0000     2.73785E-03
         TOTAL TIME 2.66976E+07 4.44960E+05  7416.0      309.00     0.84600    


end timestep


start timestep kper="310" kstp="1" mode="normal"

 #Stressperiod Save Options

 BEGIN READING OUTPUT CONTROL FOR STRESS PERIOD 310
      ALL TIME STEPS WILL BE SAVED
      ALL TIME STEPS WILL BE SAVED

 END READING OUTPUT CONTROL FOR STRESS PERIOD 310


 PROCESSING STORAGE PERIOD DATA
 END PROCESSING STORAGE PERIOD DATA


 STRESS PERIOD 310 IS TRANSIENT


 REUSING WELS FROM LAST STRESS PERIOD

 REUSING DRNS FROM LAST STRESS PERIOD

 REUSING RIVS FROM LAST STRESS PERIOD

 REUSING RIVS FROM LAST STRESS PERIOD

 REUSING RCHS FROM LAST STRESS PERIOD
 UBDSV06 SAVING              DRN IN MODEL GWF_1            PACKAGE GWF_1           CONNECTED TO MODEL GWF_1            PACKAGE DRN_SYS1         ON UNIT   1019 AT TIME STEP      1, STRESS PERIOD    310
 UBDSV06 SAVING              RIV IN MODEL GWF_1            PACKAGE GWF_1           CONNECTED TO MODEL GWF_1            PACKAGE RIV_SYS1         ON UNIT   1019 AT TIME STEP      1, STRESS PERIOD    310
 UBDSV06 SAVING              RIV IN MODEL GWF_1            PACKAGE GWF_1           CONNECTED TO MODEL GWF_1            PACKAGE RIV_SYS2         ON UNIT   1019 AT TIME STEP      1, STRESS PERIOD    310

 HEAD WILL BE SAVED ON UNIT 1018 AT END OF TIME STEP    1, STRESS PERIOD  310


  VOLUME BUDGET FOR ENTIRE MODEL AT END OF TIME STEP    1, STRESS PERIOD 310
  ---------------------------------------------------------------------------------------------------

     CUMULATIVE VOLUME      L**3       RATES FOR THIS TIME STEP      L**3/T          PACKAGE NAME    
     ------------------                 ------------------------                     ----------------

           IN:                                      IN:
           ---                                      ---
              STO-SS =      266548.2107                STO-SS =        2251.4842     STORAGE                          
                 WEL =      270633.1453                   WEL =         415.6992     RIV_CORR                         
                 DRN =           0.0000                   DRN =           0.0000     DRN_SYS1                         
                 RIV =      263222.0418                   RIV =         449.0296     RIV_SYS1                         
                 RIV =           0.0000                   RIV =           0.0000     RIV_SYS2                         
                 RCH =      491320.5581                   RCH =         490.1153     RCH_MSW                          

            TOTAL IN =     1291723.9559              TOTAL IN =        3606.3283

          OUT:                                     OUT:
          ----                                     ----
              STO-SS =      215120.2010                STO-SS =           0.0000     STORAGE                          
                 WEL =      325510.8483                   WEL =        1226.8960     RIV_CORR                         
                 DRN =       79414.2474                   DRN =         293.5487     DRN_SYS1                         
                 RIV =      315641.1368                   RIV =        1143.9322     RIV_SYS1                         
                 RIV =      214026.7864                   RIV =         786.1733     RIV_SYS2                         
                 RCH =      142014.3347                   RCH =         155.8031     RCH_MSW                          

           TOTAL OUT =     1291727.5546             TOTAL OUT =        3606.3533

            IN - OUT =          -3.5987              IN - OUT =      -2.4970E-02

 PERCENT DISCREPANCY =          -0.00     PERCENT DISCREPANCY =          -0.00




         TIME SUMMARY AT END OF TIME STEP    1 IN STRESS PERIOD  310
                    SECONDS     MINUTES      HOURS       DAYS        YEARS
                    -----------------------------------------------------------
   TIME STEP LENGTH  86400.      1440.0      24.000      1.0000     2.73785E-03
 STRESS PERIOD TIME  86400.      1440.0      24.000      1.0000     2.73785E-03
         TOTAL TIME 2.67840E+07 4.46400E+05  7440.0      310.00     0.84873    


end timestep


start timestep kper="311" kstp="1" mode="normal"

 #Stressperiod Save Options

 BEGIN READING OUTPUT CONTROL FOR STRESS PERIOD 311
      ALL TIME STEPS WILL BE SAVED
      ALL TIME STEPS WILL BE SAVED

 END READING OUTPUT CONTROL FOR STRESS PERIOD 311


 PROCESSING STORAGE PERIOD DATA
 END PROCESSING STORAGE PERIOD DATA


 STRESS PERIOD 311 IS TRANSIENT


 REUSING WELS FROM LAST STRESS PERIOD

 REUSING DRNS FROM LAST STRESS PERIOD

 REUSING RIVS FROM LAST STRESS PERIOD

 REUSING RIVS FROM LAST STRESS PERIOD

 REUSING RCHS FROM LAST STRESS PERIOD
 UBDSV06 SAVING              DRN IN MODEL GWF_1            PACKAGE GWF_1           CONNECTED TO MODEL GWF_1            PACKAGE DRN_SYS1         ON UNIT   1019 AT TIME STEP      1, STRESS PERIOD    311
 UBDSV06 SAVING              RIV IN MODEL GWF_1            PACKAGE GWF_1           CONNECTED TO MODEL GWF_1            PACKAGE RIV_SYS1         ON UNIT   1019 AT TIME STEP      1, STRESS PERIOD    311
 UBDSV06 SAVING              RIV IN MODEL GWF_1            PACKAGE GWF_1           CONNECTED TO MODEL GWF_1            PACKAGE RIV_SYS2         ON UNIT   1019 AT TIME STEP      1, STRESS PERIOD    311

 HEAD WILL BE SAVED ON UNIT 1018 AT END OF TIME STEP    1, STRESS PERIOD  311


  VOLUME BUDGET FOR ENTIRE MODEL AT END OF TIME STEP    1, STRESS PERIOD 311
  ---------------------------------------------------------------------------------------------------

     CUMULATIVE VOLUME      L**3       RATES FOR THIS TIME STEP      L**3/T          PACKAGE NAME    
     ------------------                 ------------------------                     ----------------

           IN:                                      IN:
           ---                                      ---
              STO-SS =      268524.8059                STO-SS =        1976.5952     STORAGE                          
                 WEL =      271082.1749                   WEL =         449.0296     RIV_CORR                         
                 DRN =           0.0000                   DRN =           0.0000     DRN_SYS1                         
                 RIV =      263665.0622                   RIV =         443.0203     RIV_SYS1                         
                 RIV =           0.0000                   RIV =           0.0000     RIV_SYS2                         
                 RCH =      491806.9976                   RCH =         486.4395     RCH_MSW                          

            TOTAL IN =     1295079.0405              TOTAL IN =        3355.0846

          OUT:                                     OUT:
          ----                                     ----
              STO-SS =      215128.7132                STO-SS =           8.5122     STORAGE                          
                 WEL =      326654.7805                   WEL =        1143.9322     RIV_CORR                         
                 DRN =       79703.9258                   DRN =         289.6785     DRN_SYS1                         
                 RIV =      316769.5305                   RIV =        1128.3937     RIV_SYS1                         
                 RIV =      214802.3510                   RIV =         775.5646     RIV_SYS2                         
                 RCH =      142023.3859                   RCH =           9.0512     RCH_MSW                          

           TOTAL OUT =     1295082.6869             TOTAL OUT =        3355.1323

            IN - OUT =          -3.6464              IN - OUT =      -4.7740E-02

 PERCENT DISCREPANCY =          -0.00     PERCENT DISCREPANCY =          -0.00




         TIME SUMMARY AT END OF TIME STEP    1 IN STRESS PERIOD  311
                    SECONDS     MINUTES      HOURS       DAYS        YEARS
                    -----------------------------------------------------------
   TIME STEP LENGTH  86400.      1440.0      24.000      1.0000     2.73785E-03
 STRESS PERIOD TIME  86400.      1440.0      24.000      1.0000     2.73785E-03
         TOTAL TIME 2.68704E+07 4.47840E+05  7464.0      311.00     0.85147    


end timestep


start timestep kper="312" kstp="1" mode="normal"

 #Stressperiod Save Options

 BEGIN READING OUTPUT CONTROL FOR STRESS PERIOD 312
      ALL TIME STEPS WILL BE SAVED
      ALL TIME STEPS WILL BE SAVED

 END READING OUTPUT CONTROL FOR STRESS PERIOD 312


 PROCESSING STORAGE PERIOD DATA
 END PROCESSING STORAGE PERIOD DATA


 STRESS PERIOD 312 IS TRANSIENT


 REUSING WELS FROM LAST STRESS PERIOD

 REUSING DRNS FROM LAST STRESS PERIOD

 REUSING RIVS FROM LAST STRESS PERIOD

 REUSING RIVS FROM LAST STRESS PERIOD

 REUSING RCHS FROM LAST STRESS PERIOD
 UBDSV06 SAVING              DRN IN MODEL GWF_1            PACKAGE GWF_1           CONNECTED TO MODEL GWF_1            PACKAGE DRN_SYS1         ON UNIT   1019 AT TIME STEP      1, STRESS PERIOD    312
 UBDSV06 SAVING              RIV IN MODEL GWF_1            PACKAGE GWF_1           CONNECTED TO MODEL GWF_1            PACKAGE RIV_SYS1         ON UNIT   1019 AT TIME STEP      1, STRESS PERIOD    312
 UBDSV06 SAVING              RIV IN MODEL GWF_1            PACKAGE GWF_1           CONNECTED TO MODEL GWF_1            PACKAGE RIV_SYS2         ON UNIT   1019 AT TIME STEP      1, STRESS PERIOD    312

 HEAD WILL BE SAVED ON UNIT 1018 AT END OF TIME STEP    1, STRESS PERIOD  312


  VOLUME BUDGET FOR ENTIRE MODEL AT END OF TIME STEP    1, STRESS PERIOD 312
  ---------------------------------------------------------------------------------------------------

     CUMULATIVE VOLUME      L**3       RATES FOR THIS TIME STEP      L**3/T          PACKAGE NAME    
     ------------------                 ------------------------                     ----------------

           IN:                                      IN:
           ---                                      ---
              STO-SS =      270501.3960                STO-SS =        1976.5901     STORAGE                          
                 WEL =      271525.1952                   WEL =         443.0203     RIV_CORR                         
                 DRN =           0.0000                   DRN =           0.0000     DRN_SYS1                         
                 RIV =      264158.1499                   RIV =         493.0878     RIV_SYS1                         
                 RIV =           0.0000                   RIV =           0.0000     RIV_SYS2                         
                 RCH =      492146.9836                   RCH =         339.9860     RCH_MSW                          

            TOTAL IN =     1298331.7247              TOTAL IN =        3252.6842

          OUT:                                     OUT:
          ----                                     ----
              STO-SS =      215128.7132                STO-SS =           0.0000     STORAGE                          
                 WEL =      327783.1742                   WEL =        1128.3937     RIV_CORR                         
                 DRN =       79989.9226                   DRN =         285.9968     DRN_SYS1                         
                 RIV =      317818.0306                   RIV =        1048.5001     RIV_SYS1                         
                 RIV =      215567.9842                   RIV =         765.6333     RIV_SYS2                         
                 RCH =      142047.5599                   RCH =          24.1740     RCH_MSW                          

           TOTAL OUT =     1298335.3847             TOTAL OUT =        3252.6978

            IN - OUT =          -3.6600              IN - OUT =      -1.3584E-02

 PERCENT DISCREPANCY =          -0.00     PERCENT DISCREPANCY =          -0.00




         TIME SUMMARY AT END OF TIME STEP    1 IN STRESS PERIOD  312
                    SECONDS     MINUTES      HOURS       DAYS        YEARS
                    -----------------------------------------------------------
   TIME STEP LENGTH  86400.      1440.0      24.000      1.0000     2.73785E-03
 STRESS PERIOD TIME  86400.      1440.0      24.000      1.0000     2.73785E-03
         TOTAL TIME 2.69568E+07 4.49280E+05  7488.0      312.00     0.85421    


end timestep


start timestep kper="313" kstp="1" mode="normal"

 #Stressperiod Save Options

 BEGIN READING OUTPUT CONTROL FOR STRESS PERIOD 313
      ALL TIME STEPS WILL BE SAVED
      ALL TIME STEPS WILL BE SAVED

 END READING OUTPUT CONTROL FOR STRESS PERIOD 313


 PROCESSING STORAGE PERIOD DATA
 END PROCESSING STORAGE PERIOD DATA


 STRESS PERIOD 313 IS TRANSIENT


 REUSING WELS FROM LAST STRESS PERIOD

 REUSING DRNS FROM LAST STRESS PERIOD

 REUSING RIVS FROM LAST STRESS PERIOD

 REUSING RIVS FROM LAST STRESS PERIOD

 REUSING RCHS FROM LAST STRESS PERIOD
 UBDSV06 SAVING              DRN IN MODEL GWF_1            PACKAGE GWF_1           CONNECTED TO MODEL GWF_1            PACKAGE DRN_SYS1         ON UNIT   1019 AT TIME STEP      1, STRESS PERIOD    313
 UBDSV06 SAVING              RIV IN MODEL GWF_1            PACKAGE GWF_1           CONNECTED TO MODEL GWF_1            PACKAGE RIV_SYS1         ON UNIT   1019 AT TIME STEP      1, STRESS PERIOD    313
 UBDSV06 SAVING              RIV IN MODEL GWF_1            PACKAGE GWF_1           CONNECTED TO MODEL GWF_1            PACKAGE RIV_SYS2         ON UNIT   1019 AT TIME STEP      1, STRESS PERIOD    313

 HEAD WILL BE SAVED ON UNIT 1018 AT END OF TIME STEP    1, STRESS PERIOD  313


  VOLUME BUDGET FOR ENTIRE MODEL AT END OF TIME STEP    1, STRESS PERIOD 313
  ---------------------------------------------------------------------------------------------------

     CUMULATIVE VOLUME      L**3       RATES FOR THIS TIME STEP      L**3/T          PACKAGE NAME    
     ------------------                 ------------------------                     ----------------

           IN:                                      IN:
           ---                                      ---
              STO-SS =      272313.4473                STO-SS =        1812.0513     STORAGE                          
                 WEL =      272018.2830                   WEL =         493.0878     RIV_CORR                         
                 DRN =           0.0000                   DRN =           0.0000     DRN_SYS1                         
                 RIV =      264659.9874                   RIV =         501.8374     RIV_SYS1                         
                 RIV =           0.0000                   RIV =           0.0000     RIV_SYS2                         
                 RCH =      492453.8063                   RCH =         306.8227     RCH_MSW                          

            TOTAL IN =     1301445.5240              TOTAL IN =        3113.7992

          OUT:                                     OUT:
          ----                                     ----
              STO-SS =      215130.9898                STO-SS =           2.2766     STORAGE                          
                 WEL =      328831.6742                   WEL =        1048.5001     RIV_CORR                         
                 DRN =       80272.5316                   DRN =         282.6089     DRN_SYS1                         
                 RIV =      318835.4452                   RIV =        1017.4146     RIV_SYS1                         
                 RIV =      216324.4587                   RIV =         756.4745     RIV_SYS2                         
                 RCH =      142054.1276                   RCH =           6.5677     RCH_MSW                          

           TOTAL OUT =     1301449.2271             TOTAL OUT =        3113.8424

            IN - OUT =          -3.7032              IN - OUT =      -4.3140E-02

 PERCENT DISCREPANCY =          -0.00     PERCENT DISCREPANCY =          -0.00




         TIME SUMMARY AT END OF TIME STEP    1 IN STRESS PERIOD  313
                    SECONDS     MINUTES      HOURS       DAYS        YEARS
                    -----------------------------------------------------------
   TIME STEP LENGTH  86400.      1440.0      24.000      1.0000     2.73785E-03
 STRESS PERIOD TIME  86400.      1440.0      24.000      1.0000     2.73785E-03
         TOTAL TIME 2.70432E+07 4.50720E+05  7512.0      313.00     0.85695    


end timestep


start timestep kper="314" kstp="1" mode="normal"

 #Stressperiod Save Options

 BEGIN READING OUTPUT CONTROL FOR STRESS PERIOD 314
      ALL TIME STEPS WILL BE SAVED
      ALL TIME STEPS WILL BE SAVED

 END READING OUTPUT CONTROL FOR STRESS PERIOD 314


 PROCESSING STORAGE PERIOD DATA
 END PROCESSING STORAGE PERIOD DATA


 STRESS PERIOD 314 IS TRANSIENT


 REUSING WELS FROM LAST STRESS PERIOD

 REUSING DRNS FROM LAST STRESS PERIOD

 REUSING RIVS FROM LAST STRESS PERIOD

 REUSING RIVS FROM LAST STRESS PERIOD

 REUSING RCHS FROM LAST STRESS PERIOD
 UBDSV06 SAVING              DRN IN MODEL GWF_1            PACKAGE GWF_1           CONNECTED TO MODEL GWF_1            PACKAGE DRN_SYS1         ON UNIT   1019 AT TIME STEP      1, STRESS PERIOD    314
 UBDSV06 SAVING              RIV IN MODEL GWF_1            PACKAGE GWF_1           CONNECTED TO MODEL GWF_1            PACKAGE RIV_SYS1         ON UNIT   1019 AT TIME STEP      1, STRESS PERIOD    314
 UBDSV06 SAVING              RIV IN MODEL GWF_1            PACKAGE GWF_1           CONNECTED TO MODEL GWF_1            PACKAGE RIV_SYS2         ON UNIT   1019 AT TIME STEP      1, STRESS PERIOD    314

 HEAD WILL BE SAVED ON UNIT 1018 AT END OF TIME STEP    1, STRESS PERIOD  314


  VOLUME BUDGET FOR ENTIRE MODEL AT END OF TIME STEP    1, STRESS PERIOD 314
  ---------------------------------------------------------------------------------------------------

     CUMULATIVE VOLUME      L**3       RATES FOR THIS TIME STEP      L**3/T          PACKAGE NAME    
     ------------------                 ------------------------                     ----------------

           IN:                                      IN:
           ---                                      ---
              STO-SS =      273612.4891                STO-SS =        1299.0417     STORAGE                          
                 WEL =      272520.1204                   WEL =         501.8374     RIV_CORR                         
                 DRN =           0.0000                   DRN =           0.0000     DRN_SYS1                         
                 RIV =      265075.3607                   RIV =         415.3733     RIV_SYS1                         
                 RIV =           0.0000                   RIV =           0.0000     RIV_SYS2                         
                 RCH =      493644.1871                   RCH =        1190.3808     RCH_MSW                          

            TOTAL IN =     1304852.1572              TOTAL IN =        3406.6332

          OUT:                                     OUT:
          ----                                     ----
              STO-SS =      215323.9904                STO-SS =         193.0006     STORAGE                          
                 WEL =      329849.0888                   WEL =        1017.4146     RIV_CORR                         
                 DRN =       80552.6864                   DRN =         280.1548     DRN_SYS1                         
                 RIV =      320001.9869                   RIV =        1166.5417     RIV_SYS1                         
                 RIV =      217073.9112                   RIV =         749.4525     RIV_SYS2                         
                 RCH =      142054.1276                   RCH =           0.0000     RCH_MSW                          

           TOTAL OUT =     1304855.7914             TOTAL OUT =        3406.5643

            IN - OUT =          -3.6342              IN - OUT =       6.8940E-02

 PERCENT DISCREPANCY =          -0.00     PERCENT DISCREPANCY =           0.00




         TIME SUMMARY AT END OF TIME STEP    1 IN STRESS PERIOD  314
                    SECONDS     MINUTES      HOURS       DAYS        YEARS
                    -----------------------------------------------------------
   TIME STEP LENGTH  86400.      1440.0      24.000      1.0000     2.73785E-03
 STRESS PERIOD TIME  86400.      1440.0      24.000      1.0000     2.73785E-03
         TOTAL TIME 2.71296E+07 4.52160E+05  7536.0      314.00     0.85969    


end timestep


start timestep kper="315" kstp="1" mode="normal"

 #Stressperiod Save Options

 BEGIN READING OUTPUT CONTROL FOR STRESS PERIOD 315
      ALL TIME STEPS WILL BE SAVED
      ALL TIME STEPS WILL BE SAVED

 END READING OUTPUT CONTROL FOR STRESS PERIOD 315


 PROCESSING STORAGE PERIOD DATA
 END PROCESSING STORAGE PERIOD DATA


 STRESS PERIOD 315 IS TRANSIENT


 REUSING WELS FROM LAST STRESS PERIOD

 REUSING DRNS FROM LAST STRESS PERIOD

 REUSING RIVS FROM LAST STRESS PERIOD

 REUSING RIVS FROM LAST STRESS PERIOD

 REUSING RCHS FROM LAST STRESS PERIOD
 UBDSV06 SAVING              DRN IN MODEL GWF_1            PACKAGE GWF_1           CONNECTED TO MODEL GWF_1            PACKAGE DRN_SYS1         ON UNIT   1019 AT TIME STEP      1, STRESS PERIOD    315
 UBDSV06 SAVING              RIV IN MODEL GWF_1            PACKAGE GWF_1           CONNECTED TO MODEL GWF_1            PACKAGE RIV_SYS1         ON UNIT   1019 AT TIME STEP      1, STRESS PERIOD    315
 UBDSV06 SAVING              RIV IN MODEL GWF_1            PACKAGE GWF_1           CONNECTED TO MODEL GWF_1            PACKAGE RIV_SYS2         ON UNIT   1019 AT TIME STEP      1, STRESS PERIOD    315

 HEAD WILL BE SAVED ON UNIT 1018 AT END OF TIME STEP    1, STRESS PERIOD  315


  VOLUME BUDGET FOR ENTIRE MODEL AT END OF TIME STEP    1, STRESS PERIOD 315
  ---------------------------------------------------------------------------------------------------

     CUMULATIVE VOLUME      L**3       RATES FOR THIS TIME STEP      L**3/T          PACKAGE NAME    
     ------------------                 ------------------------                     ----------------

           IN:                                      IN:
           ---                                      ---
              STO-SS =      274635.5261                STO-SS =        1023.0370     STORAGE                          
                 WEL =      272935.4937                   WEL =         415.3733     RIV_CORR                         
                 DRN =           0.0000                   DRN =           0.0000     DRN_SYS1                         
                 RIV =      265517.6047                   RIV =         442.2441     RIV_SYS1                         
                 RIV =           0.0000                   RIV =           0.0000     RIV_SYS2                         
                 RCH =      495071.1441                   RCH =        1426.9570     RCH_MSW                          

            TOTAL IN =     1308159.7686              TOTAL IN =        3307.6114

          OUT:                                     OUT:
          ----                                     ----
              STO-SS =      215361.3781                STO-SS =          37.3877     STORAGE                          
                 WEL =      331015.6306                   WEL =        1166.5417     RIV_CORR                         
                 DRN =       80831.1631                   DRN =         278.4767     DRN_SYS1                         
                 RIV =      321083.0199                   RIV =        1081.0330     RIV_SYS1                         
                 RIV =      217818.0871                   RIV =         744.1759     RIV_SYS2                         
                 RCH =      142054.1276                   RCH =           0.0000     RCH_MSW                          

           TOTAL OUT =     1308163.4065             TOTAL OUT =        3307.6151

            IN - OUT =          -3.6379              IN - OUT =      -3.7120E-03

 PERCENT DISCREPANCY =          -0.00     PERCENT DISCREPANCY =          -0.00




         TIME SUMMARY AT END OF TIME STEP    1 IN STRESS PERIOD  315
                    SECONDS     MINUTES      HOURS       DAYS        YEARS
                    -----------------------------------------------------------
   TIME STEP LENGTH  86400.      1440.0      24.000      1.0000     2.73785E-03
 STRESS PERIOD TIME  86400.      1440.0      24.000      1.0000     2.73785E-03
         TOTAL TIME 2.72160E+07 4.53600E+05  7560.0      315.00     0.86242    


end timestep


start timestep kper="316" kstp="1" mode="normal"

 #Stressperiod Save Options

 BEGIN READING OUTPUT CONTROL FOR STRESS PERIOD 316
      ALL TIME STEPS WILL BE SAVED
      ALL TIME STEPS WILL BE SAVED

 END READING OUTPUT CONTROL FOR STRESS PERIOD 316


 PROCESSING STORAGE PERIOD DATA
 END PROCESSING STORAGE PERIOD DATA


 STRESS PERIOD 316 IS TRANSIENT


 REUSING WELS FROM LAST STRESS PERIOD

 REUSING DRNS FROM LAST STRESS PERIOD

 REUSING RIVS FROM LAST STRESS PERIOD

 REUSING RIVS FROM LAST STRESS PERIOD

 REUSING RCHS FROM LAST STRESS PERIOD
 UBDSV06 SAVING              DRN IN MODEL GWF_1            PACKAGE GWF_1           CONNECTED TO MODEL GWF_1            PACKAGE DRN_SYS1         ON UNIT   1019 AT TIME STEP      1, STRESS PERIOD    316
 UBDSV06 SAVING              RIV IN MODEL GWF_1            PACKAGE GWF_1           CONNECTED TO MODEL GWF_1            PACKAGE RIV_SYS1         ON UNIT   1019 AT TIME STEP      1, STRESS PERIOD    316
 UBDSV06 SAVING              RIV IN MODEL GWF_1            PACKAGE GWF_1           CONNECTED TO MODEL GWF_1            PACKAGE RIV_SYS2         ON UNIT   1019 AT TIME STEP      1, STRESS PERIOD    316

 HEAD WILL BE SAVED ON UNIT 1018 AT END OF TIME STEP    1, STRESS PERIOD  316


  VOLUME BUDGET FOR ENTIRE MODEL AT END OF TIME STEP    1, STRESS PERIOD 316
  ---------------------------------------------------------------------------------------------------

     CUMULATIVE VOLUME      L**3       RATES FOR THIS TIME STEP      L**3/T          PACKAGE NAME    
     ------------------                 ------------------------                     ----------------

           IN:                                      IN:
           ---                                      ---
              STO-SS =      275741.1494                STO-SS =        1105.6233     STORAGE                          
                 WEL =      273377.7378                   WEL =         442.2441     RIV_CORR                         
                 DRN =           0.0000                   DRN =           0.0000     DRN_SYS1                         
                 RIV =      266015.4846                   RIV =         497.8799     RIV_SYS1                         
                 RIV =           0.0000                   RIV =           0.0000     RIV_SYS2                         
                 RCH =      496124.0028                   RCH =        1052.8587     RCH_MSW                          

            TOTAL IN =     1311258.3746              TOTAL IN =        3098.6060

          OUT:                                     OUT:
          ----                                     ----
              STO-SS =      215361.3781                STO-SS =           0.0000     STORAGE                          
                 WEL =      332096.6636                   WEL =        1081.0330     RIV_CORR                         
                 DRN =       81107.9613                   DRN =         276.7982     DRN_SYS1                         
                 RIV =      322084.5427                   RIV =        1001.5228     RIV_SYS1                         
                 RIV =      218557.3696                   RIV =         739.2824     RIV_SYS2                         
                 RCH =      142054.1276                   RCH =           0.0000     RCH_MSW                          

           TOTAL OUT =     1311262.0429             TOTAL OUT =        3098.6364

            IN - OUT =          -3.6683              IN - OUT =      -3.0405E-02

 PERCENT DISCREPANCY =          -0.00     PERCENT DISCREPANCY =          -0.00




         TIME SUMMARY AT END OF TIME STEP    1 IN STRESS PERIOD  316
                    SECONDS     MINUTES      HOURS       DAYS        YEARS
                    -----------------------------------------------------------
   TIME STEP LENGTH  86400.      1440.0      24.000      1.0000     2.73785E-03
 STRESS PERIOD TIME  86400.      1440.0      24.000      1.0000     2.73785E-03
         TOTAL TIME 2.73024E+07 4.55040E+05  7584.0      316.00     0.86516    


end timestep


start timestep kper="317" kstp="1" mode="normal"

 #Stressperiod Save Options

 BEGIN READING OUTPUT CONTROL FOR STRESS PERIOD 317
      ALL TIME STEPS WILL BE SAVED
      ALL TIME STEPS WILL BE SAVED

 END READING OUTPUT CONTROL FOR STRESS PERIOD 317


 PROCESSING STORAGE PERIOD DATA
 END PROCESSING STORAGE PERIOD DATA


 STRESS PERIOD 317 IS TRANSIENT


 REUSING WELS FROM LAST STRESS PERIOD

 REUSING DRNS FROM LAST STRESS PERIOD

 REUSING RIVS FROM LAST STRESS PERIOD

 REUSING RIVS FROM LAST STRESS PERIOD

 REUSING RCHS FROM LAST STRESS PERIOD
 UBDSV06 SAVING              DRN IN MODEL GWF_1            PACKAGE GWF_1           CONNECTED TO MODEL GWF_1            PACKAGE DRN_SYS1         ON UNIT   1019 AT TIME STEP      1, STRESS PERIOD    317
 UBDSV06 SAVING              RIV IN MODEL GWF_1            PACKAGE GWF_1           CONNECTED TO MODEL GWF_1            PACKAGE RIV_SYS1         ON UNIT   1019 AT TIME STEP      1, STRESS PERIOD    317
 UBDSV06 SAVING              RIV IN MODEL GWF_1            PACKAGE GWF_1           CONNECTED TO MODEL GWF_1            PACKAGE RIV_SYS2         ON UNIT   1019 AT TIME STEP      1, STRESS PERIOD    317

 HEAD WILL BE SAVED ON UNIT 1018 AT END OF TIME STEP    1, STRESS PERIOD  317


  VOLUME BUDGET FOR ENTIRE MODEL AT END OF TIME STEP    1, STRESS PERIOD 317
  ---------------------------------------------------------------------------------------------------

     CUMULATIVE VOLUME      L**3       RATES FOR THIS TIME STEP      L**3/T          PACKAGE NAME    
     ------------------                 ------------------------                     ----------------

           IN:                                      IN:
           ---                                      ---
              STO-SS =      276435.2210                STO-SS =         694.0717     STORAGE                          
                 WEL =      273875.6177                   WEL =         497.8799     RIV_CORR                         
                 DRN =           0.0000                   DRN =           0.0000     DRN_SYS1                         
                 RIV =      266451.9098                   RIV =         436.4252     RIV_SYS1                         
                 RIV =           0.0000                   RIV =           0.0000     RIV_SYS2                         
                 RCH =      497728.4792                   RCH =        1604.4763     RCH_MSW                          

            TOTAL IN =     1314491.2277              TOTAL IN =        3232.8532

          OUT:                                     OUT:
          ----                                     ----
              STO-SS =      215461.2506                STO-SS =          99.8725     STORAGE                          
                 WEL =      333098.1863                   WEL =        1001.5228     RIV_CORR                         
                 DRN =       81383.5557                   DRN =         275.5944     DRN_SYS1                         
                 RIV =      323204.8024                   RIV =        1120.2597     RIV_SYS1                         
                 RIV =      219292.9399                   RIV =         735.5704     RIV_SYS2                         
                 RCH =      142054.1276                   RCH =           0.0000     RCH_MSW                          

           TOTAL OUT =     1314494.8626             TOTAL OUT =        3232.8197

            IN - OUT =          -3.6349              IN - OUT =       3.3414E-02

 PERCENT DISCREPANCY =          -0.00     PERCENT DISCREPANCY =           0.00




         TIME SUMMARY AT END OF TIME STEP    1 IN STRESS PERIOD  317
                    SECONDS     MINUTES      HOURS       DAYS        YEARS
                    -----------------------------------------------------------
   TIME STEP LENGTH  86400.      1440.0      24.000      1.0000     2.73785E-03
 STRESS PERIOD TIME  86400.      1440.0      24.000      1.0000     2.73785E-03
         TOTAL TIME 2.73888E+07 4.56480E+05  7608.0      317.00     0.86790    


end timestep


start timestep kper="318" kstp="1" mode="normal"

 #Stressperiod Save Options

 BEGIN READING OUTPUT CONTROL FOR STRESS PERIOD 318
      ALL TIME STEPS WILL BE SAVED
      ALL TIME STEPS WILL BE SAVED

 END READING OUTPUT CONTROL FOR STRESS PERIOD 318


 PROCESSING STORAGE PERIOD DATA
 END PROCESSING STORAGE PERIOD DATA


 STRESS PERIOD 318 IS TRANSIENT


 REUSING WELS FROM LAST STRESS PERIOD

 REUSING DRNS FROM LAST STRESS PERIOD

 REUSING RIVS FROM LAST STRESS PERIOD

 REUSING RIVS FROM LAST STRESS PERIOD

 REUSING RCHS FROM LAST STRESS PERIOD
 UBDSV06 SAVING              DRN IN MODEL GWF_1            PACKAGE GWF_1           CONNECTED TO MODEL GWF_1            PACKAGE DRN_SYS1         ON UNIT   1019 AT TIME STEP      1, STRESS PERIOD    318
 UBDSV06 SAVING              RIV IN MODEL GWF_1            PACKAGE GWF_1           CONNECTED TO MODEL GWF_1            PACKAGE RIV_SYS1         ON UNIT   1019 AT TIME STEP      1, STRESS PERIOD    318
 UBDSV06 SAVING              RIV IN MODEL GWF_1            PACKAGE GWF_1           CONNECTED TO MODEL GWF_1            PACKAGE RIV_SYS2         ON UNIT   1019 AT TIME STEP      1, STRESS PERIOD    318

 HEAD WILL BE SAVED ON UNIT 1018 AT END OF TIME STEP    1, STRESS PERIOD  318


  VOLUME BUDGET FOR ENTIRE MODEL AT END OF TIME STEP    1, STRESS PERIOD 318
  ---------------------------------------------------------------------------------------------------

     CUMULATIVE VOLUME      L**3       RATES FOR THIS TIME STEP      L**3/T          PACKAGE NAME    
     ------------------                 ------------------------                     ----------------

           IN:                                      IN:
           ---                                      ---
              STO-SS =      276497.5708                STO-SS =          62.3497     STORAGE                          
                 WEL =      274312.0429                   WEL =         436.4252     RIV_CORR                         
                 DRN =           0.0000                   DRN =           0.0000     DRN_SYS1                         
                 RIV =      266738.3969                   RIV =         286.4871     RIV_SYS1                         
                 RIV =           0.0000                   RIV =           0.0000     RIV_SYS2                         
                 RCH =      503206.6474                   RCH =        5478.1683     RCH_MSW                          

            TOTAL IN =     1320754.6580              TOTAL IN =        6263.4303

          OUT:                                     OUT:
          ----                                     ----
              STO-SS =      217739.9588                STO-SS =        2278.7082     STORAGE                          
                 WEL =      334218.4461                   WEL =        1120.2597     RIV_CORR                         
                 DRN =       81663.1404                   DRN =         279.5846     DRN_SYS1                         
                 RIV =      325046.5969                   RIV =        1841.7945     RIV_SYS1                         
                 RIV =      220036.0091                   RIV =         743.0692     RIV_SYS2                         
                 RCH =      142054.1276                   RCH =           0.0000     RCH_MSW                          

           TOTAL OUT =     1320758.2789             TOTAL OUT =        6263.4163

            IN - OUT =          -3.6209              IN - OUT =       1.4030E-02

 PERCENT DISCREPANCY =          -0.00     PERCENT DISCREPANCY =           0.00




         TIME SUMMARY AT END OF TIME STEP    1 IN STRESS PERIOD  318
                    SECONDS     MINUTES      HOURS       DAYS        YEARS
                    -----------------------------------------------------------
   TIME STEP LENGTH  86400.      1440.0      24.000      1.0000     2.73785E-03
 STRESS PERIOD TIME  86400.      1440.0      24.000      1.0000     2.73785E-03
         TOTAL TIME 2.74752E+07 4.57920E+05  7632.0      318.00     0.87064    


end timestep


start timestep kper="319" kstp="1" mode="normal"

 #Stressperiod Save Options

 BEGIN READING OUTPUT CONTROL FOR STRESS PERIOD 319
      ALL TIME STEPS WILL BE SAVED
      ALL TIME STEPS WILL BE SAVED

 END READING OUTPUT CONTROL FOR STRESS PERIOD 319


 PROCESSING STORAGE PERIOD DATA
 END PROCESSING STORAGE PERIOD DATA


 STRESS PERIOD 319 IS TRANSIENT


 REUSING WELS FROM LAST STRESS PERIOD

 REUSING DRNS FROM LAST STRESS PERIOD

 REUSING RIVS FROM LAST STRESS PERIOD

 REUSING RIVS FROM LAST STRESS PERIOD

 REUSING RCHS FROM LAST STRESS PERIOD
 UBDSV06 SAVING              DRN IN MODEL GWF_1            PACKAGE GWF_1           CONNECTED TO MODEL GWF_1            PACKAGE DRN_SYS1         ON UNIT   1019 AT TIME STEP      1, STRESS PERIOD    319
 UBDSV06 SAVING              RIV IN MODEL GWF_1            PACKAGE GWF_1           CONNECTED TO MODEL GWF_1            PACKAGE RIV_SYS1         ON UNIT   1019 AT TIME STEP      1, STRESS PERIOD    319
 UBDSV06 SAVING              RIV IN MODEL GWF_1            PACKAGE GWF_1           CONNECTED TO MODEL GWF_1            PACKAGE RIV_SYS2         ON UNIT   1019 AT TIME STEP      1, STRESS PERIOD    319

 HEAD WILL BE SAVED ON UNIT 1018 AT END OF TIME STEP    1, STRESS PERIOD  319


  VOLUME BUDGET FOR ENTIRE MODEL AT END OF TIME STEP    1, STRESS PERIOD 319
  ---------------------------------------------------------------------------------------------------

     CUMULATIVE VOLUME      L**3       RATES FOR THIS TIME STEP      L**3/T          PACKAGE NAME    
     ------------------                 ------------------------                     ----------------

           IN:                                      IN:
           ---                                      ---
              STO-SS =      277362.1063                STO-SS =         864.5356     STORAGE                          
                 WEL =      274598.5299                   WEL =         286.4871     RIV_CORR                         
                 DRN =           0.0000                   DRN =           0.0000     DRN_SYS1                         
                 RIV =      267325.2181                   RIV =         586.8212     RIV_SYS1                         
                 RIV =           0.0000                   RIV =           0.0000     RIV_SYS2                         
                 RCH =      505860.8809                   RCH =        2654.2334     RCH_MSW                          

            TOTAL IN =     1325146.7352              TOTAL IN =        4392.0772

          OUT:                                     OUT:
          ----                                     ----
              STO-SS =      218087.4243                STO-SS =         347.4655     STORAGE                          
                 WEL =      336060.2405                   WEL =        1841.7945     RIV_CORR                         
                 DRN =       81943.9007                   DRN =         280.7603     DRN_SYS1                         
                 RIV =      326155.6275                   RIV =        1109.0306     RIV_SYS1                         
                 RIV =      220782.1189                   RIV =         746.1098     RIV_SYS2                         
                 RCH =      142121.0329                   RCH =          66.9053     RCH_MSW                          

           TOTAL OUT =     1325150.3449             TOTAL OUT =        4392.0660

            IN - OUT =          -3.6097              IN - OUT =       1.1226E-02

 PERCENT DISCREPANCY =          -0.00     PERCENT DISCREPANCY =           0.00




         TIME SUMMARY AT END OF TIME STEP    1 IN STRESS PERIOD  319
                    SECONDS     MINUTES      HOURS       DAYS        YEARS
                    -----------------------------------------------------------
   TIME STEP LENGTH  86400.      1440.0      24.000      1.0000     2.73785E-03
 STRESS PERIOD TIME  86400.      1440.0      24.000      1.0000     2.73785E-03
         TOTAL TIME 2.75616E+07 4.59360E+05  7656.0      319.00     0.87337    


end timestep


start timestep kper="320" kstp="1" mode="normal"

 #Stressperiod Save Options

 BEGIN READING OUTPUT CONTROL FOR STRESS PERIOD 320
      ALL TIME STEPS WILL BE SAVED
      ALL TIME STEPS WILL BE SAVED

 END READING OUTPUT CONTROL FOR STRESS PERIOD 320


 PROCESSING STORAGE PERIOD DATA
 END PROCESSING STORAGE PERIOD DATA


 STRESS PERIOD 320 IS TRANSIENT


 REUSING WELS FROM LAST STRESS PERIOD

 REUSING DRNS FROM LAST STRESS PERIOD

 REUSING RIVS FROM LAST STRESS PERIOD

 REUSING RIVS FROM LAST STRESS PERIOD

 REUSING RCHS FROM LAST STRESS PERIOD
 UBDSV06 SAVING              DRN IN MODEL GWF_1            PACKAGE GWF_1           CONNECTED TO MODEL GWF_1            PACKAGE DRN_SYS1         ON UNIT   1019 AT TIME STEP      1, STRESS PERIOD    320
 UBDSV06 SAVING              RIV IN MODEL GWF_1            PACKAGE GWF_1           CONNECTED TO MODEL GWF_1            PACKAGE RIV_SYS1         ON UNIT   1019 AT TIME STEP      1, STRESS PERIOD    320
 UBDSV06 SAVING              RIV IN MODEL GWF_1            PACKAGE GWF_1           CONNECTED TO MODEL GWF_1            PACKAGE RIV_SYS2         ON UNIT   1019 AT TIME STEP      1, STRESS PERIOD    320

 HEAD WILL BE SAVED ON UNIT 1018 AT END OF TIME STEP    1, STRESS PERIOD  320


  VOLUME BUDGET FOR ENTIRE MODEL AT END OF TIME STEP    1, STRESS PERIOD 320
  ---------------------------------------------------------------------------------------------------

     CUMULATIVE VOLUME      L**3       RATES FOR THIS TIME STEP      L**3/T          PACKAGE NAME    
     ------------------                 ------------------------                     ----------------

           IN:                                      IN:
           ---                                      ---
              STO-SS =      277837.6523                STO-SS =         475.5460     STORAGE                          
                 WEL =      275185.3511                   WEL =         586.8212     RIV_CORR                         
                 DRN =           0.0000                   DRN =           0.0000     DRN_SYS1                         
                 RIV =      267765.0626                   RIV =         439.8445     RIV_SYS1                         
                 RIV =           0.0000                   RIV =           0.0000     RIV_SYS2                         
                 RCH =      507771.3516                   RCH =        1910.4708     RCH_MSW                          

            TOTAL IN =     1328559.4176              TOTAL IN =        3412.6824

          OUT:                                     OUT:
          ----                                     ----
              STO-SS =      218181.0900                STO-SS =          93.6657     STORAGE                          
                 WEL =      337169.2712                   WEL =        1109.0306     RIV_CORR                         
                 DRN =       82223.8279                   DRN =         279.9273     DRN_SYS1                         
                 RIV =      327334.6760                   RIV =        1179.0485     RIV_SYS1                         
                 RIV =      221526.9841                   RIV =         744.8651     RIV_SYS2                         
                 RCH =      142127.2530                   RCH =           6.2201     RCH_MSW                          

           TOTAL OUT =     1328563.1022             TOTAL OUT =        3412.7573

            IN - OUT =          -3.6846              IN - OUT =      -7.4928E-02

 PERCENT DISCREPANCY =          -0.00     PERCENT DISCREPANCY =          -0.00




         TIME SUMMARY AT END OF TIME STEP    1 IN STRESS PERIOD  320
                    SECONDS     MINUTES      HOURS       DAYS        YEARS
                    -----------------------------------------------------------
   TIME STEP LENGTH  86400.      1440.0      24.000      1.0000     2.73785E-03
 STRESS PERIOD TIME  86400.      1440.0      24.000      1.0000     2.73785E-03
         TOTAL TIME 2.76480E+07 4.60800E+05  7680.0      320.00     0.87611    


end timestep


start timestep kper="321" kstp="1" mode="normal"

 #Stressperiod Save Options

 BEGIN READING OUTPUT CONTROL FOR STRESS PERIOD 321
      ALL TIME STEPS WILL BE SAVED
      ALL TIME STEPS WILL BE SAVED

 END READING OUTPUT CONTROL FOR STRESS PERIOD 321


 PROCESSING STORAGE PERIOD DATA
 END PROCESSING STORAGE PERIOD DATA


 STRESS PERIOD 321 IS TRANSIENT


 REUSING WELS FROM LAST STRESS PERIOD

 REUSING DRNS FROM LAST STRESS PERIOD

 REUSING RIVS FROM LAST STRESS PERIOD

 REUSING RIVS FROM LAST STRESS PERIOD

 REUSING RCHS FROM LAST STRESS PERIOD
 UBDSV06 SAVING              DRN IN MODEL GWF_1            PACKAGE GWF_1           CONNECTED TO MODEL GWF_1            PACKAGE DRN_SYS1         ON UNIT   1019 AT TIME STEP      1, STRESS PERIOD    321
 UBDSV06 SAVING              RIV IN MODEL GWF_1            PACKAGE GWF_1           CONNECTED TO MODEL GWF_1            PACKAGE RIV_SYS1         ON UNIT   1019 AT TIME STEP      1, STRESS PERIOD    321
 UBDSV06 SAVING              RIV IN MODEL GWF_1            PACKAGE GWF_1           CONNECTED TO MODEL GWF_1            PACKAGE RIV_SYS2         ON UNIT   1019 AT TIME STEP      1, STRESS PERIOD    321

 HEAD WILL BE SAVED ON UNIT 1018 AT END OF TIME STEP    1, STRESS PERIOD  321


  VOLUME BUDGET FOR ENTIRE MODEL AT END OF TIME STEP    1, STRESS PERIOD 321
  ---------------------------------------------------------------------------------------------------

     CUMULATIVE VOLUME      L**3       RATES FOR THIS TIME STEP      L**3/T          PACKAGE NAME    
     ------------------                 ------------------------                     ----------------

           IN:                                      IN:
           ---                                      ---
              STO-SS =      278152.2039                STO-SS =         314.5515     STORAGE                          
                 WEL =      275625.1956                   WEL =         439.8445     RIV_CORR                         
                 DRN =           0.0000                   DRN =           0.0000     DRN_SYS1                         
                 RIV =      268199.7918                   RIV =         434.7293     RIV_SYS1                         
                 RIV =           0.0000                   RIV =           0.0000     RIV_SYS2                         
                 RCH =      509938.4898                   RCH =        2167.1381     RCH_MSW                          

            TOTAL IN =     1331915.6811              TOTAL IN =        3356.2635

          OUT:                                     OUT:
          ----                                     ----
              STO-SS =      218197.5551                STO-SS =          16.4651     STORAGE                          
                 WEL =      338348.3197                   WEL =        1179.0485     RIV_CORR                         
                 DRN =       82502.7581                   DRN =         278.9301     DRN_SYS1                         
                 RIV =      328473.6548                   RIV =        1138.9788     RIV_SYS1                         
                 RIV =      222269.8321                   RIV =         742.8480     RIV_SYS2                         
                 RCH =      142127.2530                   RCH =           0.0000     RCH_MSW                          

           TOTAL OUT =     1331919.3728             TOTAL OUT =        3356.2706

            IN - OUT =          -3.6917              IN - OUT =      -7.1136E-03

 PERCENT DISCREPANCY =          -0.00     PERCENT DISCREPANCY =          -0.00




         TIME SUMMARY AT END OF TIME STEP    1 IN STRESS PERIOD  321
                    SECONDS     MINUTES      HOURS       DAYS        YEARS
                    -----------------------------------------------------------
   TIME STEP LENGTH  86400.      1440.0      24.000      1.0000     2.73785E-03
 STRESS PERIOD TIME  86400.      1440.0      24.000      1.0000     2.73785E-03
         TOTAL TIME 2.77344E+07 4.62240E+05  7704.0      321.00     0.87885    


end timestep


start timestep kper="322" kstp="1" mode="normal"

 #Stressperiod Save Options

 BEGIN READING OUTPUT CONTROL FOR STRESS PERIOD 322
      ALL TIME STEPS WILL BE SAVED
      ALL TIME STEPS WILL BE SAVED

 END READING OUTPUT CONTROL FOR STRESS PERIOD 322


 PROCESSING STORAGE PERIOD DATA
 END PROCESSING STORAGE PERIOD DATA


 STRESS PERIOD 322 IS TRANSIENT


 REUSING WELS FROM LAST STRESS PERIOD

 REUSING DRNS FROM LAST STRESS PERIOD

 REUSING RIVS FROM LAST STRESS PERIOD

 REUSING RIVS FROM LAST STRESS PERIOD

 REUSING RCHS FROM LAST STRESS PERIOD
 UBDSV06 SAVING              DRN IN MODEL GWF_1            PACKAGE GWF_1           CONNECTED TO MODEL GWF_1            PACKAGE DRN_SYS1         ON UNIT   1019 AT TIME STEP      1, STRESS PERIOD    322
 UBDSV06 SAVING              RIV IN MODEL GWF_1            PACKAGE GWF_1           CONNECTED TO MODEL GWF_1            PACKAGE RIV_SYS1         ON UNIT   1019 AT TIME STEP      1, STRESS PERIOD    322
 UBDSV06 SAVING              RIV IN MODEL GWF_1            PACKAGE GWF_1           CONNECTED TO MODEL GWF_1            PACKAGE RIV_SYS2         ON UNIT   1019 AT TIME STEP      1, STRESS PERIOD    322

 HEAD WILL BE SAVED ON UNIT 1018 AT END OF TIME STEP    1, STRESS PERIOD  322


  VOLUME BUDGET FOR ENTIRE MODEL AT END OF TIME STEP    1, STRESS PERIOD 322
  ---------------------------------------------------------------------------------------------------

     CUMULATIVE VOLUME      L**3       RATES FOR THIS TIME STEP      L**3/T          PACKAGE NAME    
     ------------------                 ------------------------                     ----------------

           IN:                                      IN:
           ---                                      ---
              STO-SS =      278453.5802                STO-SS =         301.3763     STORAGE                          
                 WEL =      276059.9249                   WEL =         434.7293     RIV_CORR                         
                 DRN =           0.0000                   DRN =           0.0000     DRN_SYS1                         
                 RIV =      268645.5361                   RIV =         445.7442     RIV_SYS1                         
                 RIV =           0.0000                   RIV =           0.0000     RIV_SYS2                         
                 RCH =      512054.0664                   RCH =        2115.5767     RCH_MSW                          

            TOTAL IN =     1335213.1076              TOTAL IN =        3297.4265

          OUT:                                     OUT:
          ----                                     ----
              STO-SS =      218200.5808                STO-SS =           3.0257     STORAGE                          
                 WEL =      339487.2985                   WEL =        1138.9788     RIV_CORR                         
                 DRN =       82780.8161                   DRN =         278.0581     DRN_SYS1                         
                 RIV =      329610.1316                   RIV =        1136.4768     RIV_SYS1                         
                 RIV =      223010.7279                   RIV =         740.8958     RIV_SYS2                         
                 RCH =      142127.2530                   RCH =           0.0000     RCH_MSW                          

           TOTAL OUT =     1335216.8079             TOTAL OUT =        3297.4352

            IN - OUT =          -3.7003              IN - OUT =      -8.6260E-03

 PERCENT DISCREPANCY =          -0.00     PERCENT DISCREPANCY =          -0.00




         TIME SUMMARY AT END OF TIME STEP    1 IN STRESS PERIOD  322
                    SECONDS     MINUTES      HOURS       DAYS        YEARS
                    -----------------------------------------------------------
   TIME STEP LENGTH  86400.      1440.0      24.000      1.0000     2.73785E-03
 STRESS PERIOD TIME  86400.      1440.0      24.000      1.0000     2.73785E-03
         TOTAL TIME 2.78208E+07 4.63680E+05  7728.0      322.00     0.88159    


end timestep


start timestep kper="323" kstp="1" mode="normal"

 #Stressperiod Save Options

 BEGIN READING OUTPUT CONTROL FOR STRESS PERIOD 323
      ALL TIME STEPS WILL BE SAVED
      ALL TIME STEPS WILL BE SAVED

 END READING OUTPUT CONTROL FOR STRESS PERIOD 323


 PROCESSING STORAGE PERIOD DATA
 END PROCESSING STORAGE PERIOD DATA


 STRESS PERIOD 323 IS TRANSIENT


 REUSING WELS FROM LAST STRESS PERIOD

 REUSING DRNS FROM LAST STRESS PERIOD

 REUSING RIVS FROM LAST STRESS PERIOD

 REUSING RIVS FROM LAST STRESS PERIOD

 REUSING RCHS FROM LAST STRESS PERIOD
 UBDSV06 SAVING              DRN IN MODEL GWF_1            PACKAGE GWF_1           CONNECTED TO MODEL GWF_1            PACKAGE DRN_SYS1         ON UNIT   1019 AT TIME STEP      1, STRESS PERIOD    323
 UBDSV06 SAVING              RIV IN MODEL GWF_1            PACKAGE GWF_1           CONNECTED TO MODEL GWF_1            PACKAGE RIV_SYS1         ON UNIT   1019 AT TIME STEP      1, STRESS PERIOD    323
 UBDSV06 SAVING              RIV IN MODEL GWF_1            PACKAGE GWF_1           CONNECTED TO MODEL GWF_1            PACKAGE RIV_SYS2         ON UNIT   1019 AT TIME STEP      1, STRESS PERIOD    323

 HEAD WILL BE SAVED ON UNIT 1018 AT END OF TIME STEP    1, STRESS PERIOD  323


  VOLUME BUDGET FOR ENTIRE MODEL AT END OF TIME STEP    1, STRESS PERIOD 323
  ---------------------------------------------------------------------------------------------------

     CUMULATIVE VOLUME      L**3       RATES FOR THIS TIME STEP      L**3/T          PACKAGE NAME    
     ------------------                 ------------------------                     ----------------

           IN:                                      IN:
           ---                                      ---
              STO-SS =      278916.0748                STO-SS =         462.4946     STORAGE                          
                 WEL =      276505.6691                   WEL =         445.7442     RIV_CORR                         
                 DRN =           0.0000                   DRN =           0.0000     DRN_SYS1                         
                 RIV =      269119.2891                   RIV =         473.7531     RIV_SYS1                         
                 RIV =           0.0000                   RIV =           0.0000     RIV_SYS2                         
                 RCH =      513891.5560                   RCH =        1837.4896     RCH_MSW                          

            TOTAL IN =     1338432.5891              TOTAL IN =        3219.4815

          OUT:                                     OUT:
          ----                                     ----
              STO-SS =      218200.5808                STO-SS =           0.0000     STORAGE                          
                 WEL =      340623.7752                   WEL =        1136.4768     RIV_CORR                         
                 DRN =       83057.8536                   DRN =         277.0375     DRN_SYS1                         
                 RIV =      330677.5923                   RIV =        1067.4607     RIV_SYS1                         
                 RIV =      223749.2759                   RIV =         738.5480     RIV_SYS2                         
                 RCH =      142127.2530                   RCH =           0.0000     RCH_MSW                          

           TOTAL OUT =     1338436.3309             TOTAL OUT =        3219.5229

            IN - OUT =          -3.7418              IN - OUT =      -4.1463E-02

 PERCENT DISCREPANCY =          -0.00     PERCENT DISCREPANCY =          -0.00




         TIME SUMMARY AT END OF TIME STEP    1 IN STRESS PERIOD  323
                    SECONDS     MINUTES      HOURS       DAYS        YEARS
                    -----------------------------------------------------------
   TIME STEP LENGTH  86400.      1440.0      24.000      1.0000     2.73785E-03
 STRESS PERIOD TIME  86400.      1440.0      24.000      1.0000     2.73785E-03
         TOTAL TIME 2.79072E+07 4.65120E+05  7752.0      323.00     0.88433    


end timestep


start timestep kper="324" kstp="1" mode="normal"

 #Stressperiod Save Options

 BEGIN READING OUTPUT CONTROL FOR STRESS PERIOD 324
      ALL TIME STEPS WILL BE SAVED
      ALL TIME STEPS WILL BE SAVED

 END READING OUTPUT CONTROL FOR STRESS PERIOD 324


 PROCESSING STORAGE PERIOD DATA
 END PROCESSING STORAGE PERIOD DATA


 STRESS PERIOD 324 IS TRANSIENT


 REUSING WELS FROM LAST STRESS PERIOD

 REUSING DRNS FROM LAST STRESS PERIOD

 REUSING RIVS FROM LAST STRESS PERIOD

 REUSING RIVS FROM LAST STRESS PERIOD

 REUSING RCHS FROM LAST STRESS PERIOD
 UBDSV06 SAVING              DRN IN MODEL GWF_1            PACKAGE GWF_1           CONNECTED TO MODEL GWF_1            PACKAGE DRN_SYS1         ON UNIT   1019 AT TIME STEP      1, STRESS PERIOD    324
 UBDSV06 SAVING              RIV IN MODEL GWF_1            PACKAGE GWF_1           CONNECTED TO MODEL GWF_1            PACKAGE RIV_SYS1         ON UNIT   1019 AT TIME STEP      1, STRESS PERIOD    324
 UBDSV06 SAVING              RIV IN MODEL GWF_1            PACKAGE GWF_1           CONNECTED TO MODEL GWF_1            PACKAGE RIV_SYS2         ON UNIT   1019 AT TIME STEP      1, STRESS PERIOD    324

 HEAD WILL BE SAVED ON UNIT 1018 AT END OF TIME STEP    1, STRESS PERIOD  324


  VOLUME BUDGET FOR ENTIRE MODEL AT END OF TIME STEP    1, STRESS PERIOD 324
  ---------------------------------------------------------------------------------------------------

     CUMULATIVE VOLUME      L**3       RATES FOR THIS TIME STEP      L**3/T          PACKAGE NAME    
     ------------------                 ------------------------                     ----------------

           IN:                                      IN:
           ---                                      ---
              STO-SS =      279124.5249                STO-SS =         208.4501     STORAGE                          
                 WEL =      276979.4222                   WEL =         473.7531     RIV_CORR                         
                 DRN =           0.0000                   DRN =           0.0000     DRN_SYS1                         
                 RIV =      269550.6024                   RIV =         431.3133     RIV_SYS1                         
                 RIV =           0.0000                   RIV =           0.0000     RIV_SYS2                         
                 RCH =      516132.8522                   RCH =        2241.2961     RCH_MSW                          

            TOTAL IN =     1341787.4017              TOTAL IN =        3354.8126

          OUT:                                     OUT:
          ----                                     ----
              STO-SS =      218298.1866                STO-SS =          97.6058     STORAGE                          
                 WEL =      341691.2359                   WEL =        1067.4607     RIV_CORR                         
                 DRN =       83334.3121                   DRN =         276.4585     DRN_SYS1                         
                 RIV =      331853.7722                   RIV =        1176.1799     RIV_SYS1                         
                 RIV =      224486.3765                   RIV =         737.1005     RIV_SYS2                         
                 RCH =      142127.2530                   RCH =           0.0000     RCH_MSW                          

           TOTAL OUT =     1341791.1363             TOTAL OUT =        3354.8054

            IN - OUT =          -3.7346              IN - OUT =       7.2070E-03

 PERCENT DISCREPANCY =          -0.00     PERCENT DISCREPANCY =           0.00




         TIME SUMMARY AT END OF TIME STEP    1 IN STRESS PERIOD  324
                    SECONDS     MINUTES      HOURS       DAYS        YEARS
                    -----------------------------------------------------------
   TIME STEP LENGTH  86400.      1440.0      24.000      1.0000     2.73785E-03
 STRESS PERIOD TIME  86400.      1440.0      24.000      1.0000     2.73785E-03
         TOTAL TIME 2.79936E+07 4.66560E+05  7776.0      324.00     0.88706    


end timestep


start timestep kper="325" kstp="1" mode="normal"

 #Stressperiod Save Options

 BEGIN READING OUTPUT CONTROL FOR STRESS PERIOD 325
      ALL TIME STEPS WILL BE SAVED
      ALL TIME STEPS WILL BE SAVED

 END READING OUTPUT CONTROL FOR STRESS PERIOD 325


 PROCESSING STORAGE PERIOD DATA
 END PROCESSING STORAGE PERIOD DATA


 STRESS PERIOD 325 IS TRANSIENT


 REUSING WELS FROM LAST STRESS PERIOD

 REUSING DRNS FROM LAST STRESS PERIOD

 REUSING RIVS FROM LAST STRESS PERIOD

 REUSING RIVS FROM LAST STRESS PERIOD

 REUSING RCHS FROM LAST STRESS PERIOD
 UBDSV06 SAVING              DRN IN MODEL GWF_1            PACKAGE GWF_1           CONNECTED TO MODEL GWF_1            PACKAGE DRN_SYS1         ON UNIT   1019 AT TIME STEP      1, STRESS PERIOD    325
 UBDSV06 SAVING              RIV IN MODEL GWF_1            PACKAGE GWF_1           CONNECTED TO MODEL GWF_1            PACKAGE RIV_SYS1         ON UNIT   1019 AT TIME STEP      1, STRESS PERIOD    325
 UBDSV06 SAVING              RIV IN MODEL GWF_1            PACKAGE GWF_1           CONNECTED TO MODEL GWF_1            PACKAGE RIV_SYS2         ON UNIT   1019 AT TIME STEP      1, STRESS PERIOD    325

 HEAD WILL BE SAVED ON UNIT 1018 AT END OF TIME STEP    1, STRESS PERIOD  325


  VOLUME BUDGET FOR ENTIRE MODEL AT END OF TIME STEP    1, STRESS PERIOD 325
  ---------------------------------------------------------------------------------------------------

     CUMULATIVE VOLUME      L**3       RATES FOR THIS TIME STEP      L**3/T          PACKAGE NAME    
     ------------------                 ------------------------                     ----------------

           IN:                                      IN:
           ---                                      ---
              STO-SS =      279824.4851                STO-SS =         699.9601     STORAGE                          
                 WEL =      277410.7355                   WEL =         431.3133     RIV_CORR                         
                 DRN =           0.0000                   DRN =           0.0000     DRN_SYS1                         
                 RIV =      270117.5270                   RIV =         566.9246     RIV_SYS1                         
                 RIV =           0.0000                   RIV =           0.0000     RIV_SYS2                         
                 RCH =      517623.9628                   RCH =        1491.1107     RCH_MSW                          

            TOTAL IN =     1344976.7103              TOTAL IN =        3189.3087

          OUT:                                     OUT:
          ----                                     ----
              STO-SS =      218298.1866                STO-SS =           0.0000     STORAGE                          
                 WEL =      342867.4158                   WEL =        1176.1799     RIV_CORR                         
                 DRN =       83609.6620                   DRN =         275.3499     DRN_SYS1                         
                 RIV =      332856.2530                   RIV =        1002.4808     RIV_SYS1                         
                 RIV =      225220.8957                   RIV =         734.5192     RIV_SYS2                         
                 RCH =      142128.0626                   RCH =           0.8095     RCH_MSW                          

           TOTAL OUT =     1344980.4756             TOTAL OUT =        3189.3393

            IN - OUT =          -3.7653              IN - OUT =      -3.0682E-02

 PERCENT DISCREPANCY =          -0.00     PERCENT DISCREPANCY =          -0.00




         TIME SUMMARY AT END OF TIME STEP    1 IN STRESS PERIOD  325
                    SECONDS     MINUTES      HOURS       DAYS        YEARS
                    -----------------------------------------------------------
   TIME STEP LENGTH  86400.      1440.0      24.000      1.0000     2.73785E-03
 STRESS PERIOD TIME  86400.      1440.0      24.000      1.0000     2.73785E-03
         TOTAL TIME 2.80800E+07 4.68000E+05  7800.0      325.00     0.88980    


end timestep


start timestep kper="326" kstp="1" mode="normal"

 #Stressperiod Save Options

 BEGIN READING OUTPUT CONTROL FOR STRESS PERIOD 326
      ALL TIME STEPS WILL BE SAVED
      ALL TIME STEPS WILL BE SAVED

 END READING OUTPUT CONTROL FOR STRESS PERIOD 326


 PROCESSING STORAGE PERIOD DATA
 END PROCESSING STORAGE PERIOD DATA


 STRESS PERIOD 326 IS TRANSIENT


 REUSING WELS FROM LAST STRESS PERIOD

 REUSING DRNS FROM LAST STRESS PERIOD

 REUSING RIVS FROM LAST STRESS PERIOD

 REUSING RIVS FROM LAST STRESS PERIOD

 REUSING RCHS FROM LAST STRESS PERIOD
 UBDSV06 SAVING              DRN IN MODEL GWF_1            PACKAGE GWF_1           CONNECTED TO MODEL GWF_1            PACKAGE DRN_SYS1         ON UNIT   1019 AT TIME STEP      1, STRESS PERIOD    326
 UBDSV06 SAVING              RIV IN MODEL GWF_1            PACKAGE GWF_1           CONNECTED TO MODEL GWF_1            PACKAGE RIV_SYS1         ON UNIT   1019 AT TIME STEP      1, STRESS PERIOD    326
 UBDSV06 SAVING              RIV IN MODEL GWF_1            PACKAGE GWF_1           CONNECTED TO MODEL GWF_1            PACKAGE RIV_SYS2         ON UNIT   1019 AT TIME STEP      1, STRESS PERIOD    326

 HEAD WILL BE SAVED ON UNIT 1018 AT END OF TIME STEP    1, STRESS PERIOD  326


  VOLUME BUDGET FOR ENTIRE MODEL AT END OF TIME STEP    1, STRESS PERIOD 326
  ---------------------------------------------------------------------------------------------------

     CUMULATIVE VOLUME      L**3       RATES FOR THIS TIME STEP      L**3/T          PACKAGE NAME    
     ------------------                 ------------------------                     ----------------

           IN:                                      IN:
           ---                                      ---
              STO-SS =      280575.7290                STO-SS =         751.2439     STORAGE                          
                 WEL =      277977.6600                   WEL =         566.9246     RIV_CORR                         
                 DRN =           0.0000                   DRN =           0.0000     DRN_SYS1                         
                 RIV =      270652.3243                   RIV =         534.7973     RIV_SYS1                         
                 RIV =           0.0000                   RIV =           0.0000     RIV_SYS2                         
                 RCH =      518794.2525                   RCH =        1170.2897     RCH_MSW                          

            TOTAL IN =     1347999.9658              TOTAL IN =        3023.2554

          OUT:                                     OUT:
          ----                                     ----
              STO-SS =      218307.5255                STO-SS =           9.3389     STORAGE                          
                 WEL =      343869.8966                   WEL =        1002.4808     RIV_CORR                         
                 DRN =       83883.4432                   DRN =         273.7811     DRN_SYS1                         
                 RIV =      333841.7189                   RIV =         985.4660     RIV_SYS1                         
                 RIV =      225951.7544                   RIV =         730.8588     RIV_SYS2                         
                 RCH =      142149.4492                   RCH =          21.3866     RCH_MSW                          

           TOTAL OUT =     1348003.7878             TOTAL OUT =        3023.3122

            IN - OUT =          -3.8220              IN - OUT =      -5.6775E-02

 PERCENT DISCREPANCY =          -0.00     PERCENT DISCREPANCY =          -0.00




         TIME SUMMARY AT END OF TIME STEP    1 IN STRESS PERIOD  326
                    SECONDS     MINUTES      HOURS       DAYS        YEARS
                    -----------------------------------------------------------
   TIME STEP LENGTH  86400.      1440.0      24.000      1.0000     2.73785E-03
 STRESS PERIOD TIME  86400.      1440.0      24.000      1.0000     2.73785E-03
         TOTAL TIME 2.81664E+07 4.69440E+05  7824.0      326.00     0.89254    


end timestep


start timestep kper="327" kstp="1" mode="normal"

 #Stressperiod Save Options

 BEGIN READING OUTPUT CONTROL FOR STRESS PERIOD 327
      ALL TIME STEPS WILL BE SAVED
      ALL TIME STEPS WILL BE SAVED

 END READING OUTPUT CONTROL FOR STRESS PERIOD 327


 PROCESSING STORAGE PERIOD DATA
 END PROCESSING STORAGE PERIOD DATA


 STRESS PERIOD 327 IS TRANSIENT


 REUSING WELS FROM LAST STRESS PERIOD

 REUSING DRNS FROM LAST STRESS PERIOD

 REUSING RIVS FROM LAST STRESS PERIOD

 REUSING RIVS FROM LAST STRESS PERIOD

 REUSING RCHS FROM LAST STRESS PERIOD
 UBDSV06 SAVING              DRN IN MODEL GWF_1            PACKAGE GWF_1           CONNECTED TO MODEL GWF_1            PACKAGE DRN_SYS1         ON UNIT   1019 AT TIME STEP      1, STRESS PERIOD    327
 UBDSV06 SAVING              RIV IN MODEL GWF_1            PACKAGE GWF_1           CONNECTED TO MODEL GWF_1            PACKAGE RIV_SYS1         ON UNIT   1019 AT TIME STEP      1, STRESS PERIOD    327
 UBDSV06 SAVING              RIV IN MODEL GWF_1            PACKAGE GWF_1           CONNECTED TO MODEL GWF_1            PACKAGE RIV_SYS2         ON UNIT   1019 AT TIME STEP      1, STRESS PERIOD    327

 HEAD WILL BE SAVED ON UNIT 1018 AT END OF TIME STEP    1, STRESS PERIOD  327


  VOLUME BUDGET FOR ENTIRE MODEL AT END OF TIME STEP    1, STRESS PERIOD 327
  ---------------------------------------------------------------------------------------------------

     CUMULATIVE VOLUME      L**3       RATES FOR THIS TIME STEP      L**3/T          PACKAGE NAME    
     ------------------                 ------------------------                     ----------------

           IN:                                      IN:
           ---                                      ---
              STO-SS =      281448.5922                STO-SS =         872.8632     STORAGE                          
                 WEL =      278512.4573                   WEL =         534.7973     RIV_CORR                         
                 DRN =           0.0000                   DRN =           0.0000     DRN_SYS1                         
                 RIV =      271244.5868                   RIV =         592.2625     RIV_SYS1                         
                 RIV =           0.0000                   RIV =           0.0000     RIV_SYS2                         
                 RCH =      519746.7863                   RCH =         952.5339     RCH_MSW                          

            TOTAL IN =     1350952.4227              TOTAL IN =        2952.4569

          OUT:                                     OUT:
          ----                                     ----
              STO-SS =      218307.5255                STO-SS =           0.0000     STORAGE                          
                 WEL =      344855.3626                   WEL =         985.4660     RIV_CORR                         
                 DRN =       84155.4108                   DRN =         271.9676     DRN_SYS1                         
                 RIV =      334788.7837                   RIV =         947.0648     RIV_SYS1                         
                 RIV =      226678.3005                   RIV =         726.5461     RIV_SYS2                         
                 RCH =      142170.8908                   RCH =          21.4416     RCH_MSW                          

           TOTAL OUT =     1350956.2738             TOTAL OUT =        2952.4860

            IN - OUT =          -3.8512              IN - OUT =      -2.9118E-02

 PERCENT DISCREPANCY =          -0.00     PERCENT DISCREPANCY =          -0.00




         TIME SUMMARY AT END OF TIME STEP    1 IN STRESS PERIOD  327
                    SECONDS     MINUTES      HOURS       DAYS        YEARS
                    -----------------------------------------------------------
   TIME STEP LENGTH  86400.      1440.0      24.000      1.0000     2.73785E-03
 STRESS PERIOD TIME  86400.      1440.0      24.000      1.0000     2.73785E-03
         TOTAL TIME 2.82528E+07 4.70880E+05  7848.0      327.00     0.89528    


end timestep


start timestep kper="328" kstp="1" mode="normal"

 #Stressperiod Save Options

 BEGIN READING OUTPUT CONTROL FOR STRESS PERIOD 328
      ALL TIME STEPS WILL BE SAVED
      ALL TIME STEPS WILL BE SAVED

 END READING OUTPUT CONTROL FOR STRESS PERIOD 328


 PROCESSING STORAGE PERIOD DATA
 END PROCESSING STORAGE PERIOD DATA


 STRESS PERIOD 328 IS TRANSIENT


 REUSING WELS FROM LAST STRESS PERIOD

 REUSING DRNS FROM LAST STRESS PERIOD

 REUSING RIVS FROM LAST STRESS PERIOD

 REUSING RIVS FROM LAST STRESS PERIOD

 REUSING RCHS FROM LAST STRESS PERIOD
 UBDSV06 SAVING              DRN IN MODEL GWF_1            PACKAGE GWF_1           CONNECTED TO MODEL GWF_1            PACKAGE DRN_SYS1         ON UNIT   1019 AT TIME STEP      1, STRESS PERIOD    328
 UBDSV06 SAVING              RIV IN MODEL GWF_1            PACKAGE GWF_1           CONNECTED TO MODEL GWF_1            PACKAGE RIV_SYS1         ON UNIT   1019 AT TIME STEP      1, STRESS PERIOD    328
 UBDSV06 SAVING              RIV IN MODEL GWF_1            PACKAGE GWF_1           CONNECTED TO MODEL GWF_1            PACKAGE RIV_SYS2         ON UNIT   1019 AT TIME STEP      1, STRESS PERIOD    328

 HEAD WILL BE SAVED ON UNIT 1018 AT END OF TIME STEP    1, STRESS PERIOD  328


  VOLUME BUDGET FOR ENTIRE MODEL AT END OF TIME STEP    1, STRESS PERIOD 328
  ---------------------------------------------------------------------------------------------------

     CUMULATIVE VOLUME      L**3       RATES FOR THIS TIME STEP      L**3/T          PACKAGE NAME    
     ------------------                 ------------------------                     ----------------

           IN:                                      IN:
           ---                                      ---
              STO-SS =      282276.4772                STO-SS =         827.8850     STORAGE                          
                 WEL =      279104.7198                   WEL =         592.2625     RIV_CORR                         
                 DRN =           0.0000                   DRN =           0.0000     DRN_SYS1                         
                 RIV =      271827.0638                   RIV =         582.4770     RIV_SYS1                         
                 RIV =           0.0000                   RIV =           0.0000     RIV_SYS2                         
                 RCH =      520623.9740                   RCH =         877.1876     RCH_MSW                          

            TOTAL IN =     1353832.2348              TOTAL IN =        2879.8122

          OUT:                                     OUT:
          ----                                     ----
              STO-SS =      218311.9926                STO-SS =           4.4671     STORAGE                          
                 WEL =      345802.4273                   WEL =         947.0648     RIV_CORR                         
                 DRN =       84425.5626                   DRN =         270.1519     DRN_SYS1                         
                 RIV =      335724.7817                   RIV =         935.9980     RIV_SYS1                         
                 RIV =      227400.4377                   RIV =         722.1372     RIV_SYS2                         
                 RCH =      142170.8908                   RCH =           0.0000     RCH_MSW                          

           TOTAL OUT =     1353836.0927             TOTAL OUT =        2879.8189

            IN - OUT =          -3.8579              IN - OUT =      -6.7204E-03

 PERCENT DISCREPANCY =          -0.00     PERCENT DISCREPANCY =          -0.00




         TIME SUMMARY AT END OF TIME STEP    1 IN STRESS PERIOD  328
                    SECONDS     MINUTES      HOURS       DAYS        YEARS
                    -----------------------------------------------------------
   TIME STEP LENGTH  86400.      1440.0      24.000      1.0000     2.73785E-03
 STRESS PERIOD TIME  86400.      1440.0      24.000      1.0000     2.73785E-03
         TOTAL TIME 2.83392E+07 4.72320E+05  7872.0      328.00     0.89802    


end timestep


start timestep kper="329" kstp="1" mode="normal"

 #Stressperiod Save Options

 BEGIN READING OUTPUT CONTROL FOR STRESS PERIOD 329
      ALL TIME STEPS WILL BE SAVED
      ALL TIME STEPS WILL BE SAVED

 END READING OUTPUT CONTROL FOR STRESS PERIOD 329


 PROCESSING STORAGE PERIOD DATA
 END PROCESSING STORAGE PERIOD DATA


 STRESS PERIOD 329 IS TRANSIENT


 REUSING WELS FROM LAST STRESS PERIOD

 REUSING DRNS FROM LAST STRESS PERIOD

 REUSING RIVS FROM LAST STRESS PERIOD

 REUSING RIVS FROM LAST STRESS PERIOD

 REUSING RCHS FROM LAST STRESS PERIOD
 UBDSV06 SAVING              DRN IN MODEL GWF_1            PACKAGE GWF_1           CONNECTED TO MODEL GWF_1            PACKAGE DRN_SYS1         ON UNIT   1019 AT TIME STEP      1, STRESS PERIOD    329
 UBDSV06 SAVING              RIV IN MODEL GWF_1            PACKAGE GWF_1           CONNECTED TO MODEL GWF_1            PACKAGE RIV_SYS1         ON UNIT   1019 AT TIME STEP      1, STRESS PERIOD    329
 UBDSV06 SAVING              RIV IN MODEL GWF_1            PACKAGE GWF_1           CONNECTED TO MODEL GWF_1            PACKAGE RIV_SYS2         ON UNIT   1019 AT TIME STEP      1, STRESS PERIOD    329

 HEAD WILL BE SAVED ON UNIT 1018 AT END OF TIME STEP    1, STRESS PERIOD  329


  VOLUME BUDGET FOR ENTIRE MODEL AT END OF TIME STEP    1, STRESS PERIOD 329
  ---------------------------------------------------------------------------------------------------

     CUMULATIVE VOLUME      L**3       RATES FOR THIS TIME STEP      L**3/T          PACKAGE NAME    
     ------------------                 ------------------------                     ----------------

           IN:                                      IN:
           ---                                      ---
              STO-SS =      283196.5991                STO-SS =         920.1219     STORAGE                          
                 WEL =      279687.1969                   WEL =         582.4770     RIV_CORR                         
                 DRN =           0.0000                   DRN =           0.0000     DRN_SYS1                         
                 RIV =      272466.5525                   RIV =         639.4886     RIV_SYS1                         
                 RIV =           0.0000                   RIV =           0.0000     RIV_SYS2                         
                 RCH =      521325.8923                   RCH =         701.9183     RCH_MSW                          

            TOTAL IN =     1356676.2407              TOTAL IN =        2844.0059

          OUT:                                     OUT:
          ----                                     ----
              STO-SS =      218311.9926                STO-SS =           0.0000     STORAGE                          
                 WEL =      346738.4253                   WEL =         935.9980     RIV_CORR                         
                 DRN =       84693.8640                   DRN =         268.3014     DRN_SYS1                         
                 RIV =      336633.7158                   RIV =         908.9341     RIV_SYS1                         
                 RIV =      228118.0566                   RIV =         717.6189     RIV_SYS2                         
                 RCH =      142184.0542                   RCH =          13.1634     RCH_MSW                          

           TOTAL OUT =     1356680.1085             TOTAL OUT =        2844.0158

            IN - OUT =          -3.8678              IN - OUT =      -9.9093E-03

 PERCENT DISCREPANCY =          -0.00     PERCENT DISCREPANCY =          -0.00




         TIME SUMMARY AT END OF TIME STEP    1 IN STRESS PERIOD  329
                    SECONDS     MINUTES      HOURS       DAYS        YEARS
                    -----------------------------------------------------------
   TIME STEP LENGTH  86400.      1440.0      24.000      1.0000     2.73785E-03
 STRESS PERIOD TIME  86400.      1440.0      24.000      1.0000     2.73785E-03
         TOTAL TIME 2.84256E+07 4.73760E+05  7896.0      329.00     0.90075    


end timestep


start timestep kper="330" kstp="1" mode="normal"

 #Stressperiod Save Options

 BEGIN READING OUTPUT CONTROL FOR STRESS PERIOD 330
      ALL TIME STEPS WILL BE SAVED
      ALL TIME STEPS WILL BE SAVED

 END READING OUTPUT CONTROL FOR STRESS PERIOD 330


 PROCESSING STORAGE PERIOD DATA
 END PROCESSING STORAGE PERIOD DATA


 STRESS PERIOD 330 IS TRANSIENT


 REUSING WELS FROM LAST STRESS PERIOD

 REUSING DRNS FROM LAST STRESS PERIOD

 REUSING RIVS FROM LAST STRESS PERIOD

 REUSING RIVS FROM LAST STRESS PERIOD

 REUSING RCHS FROM LAST STRESS PERIOD
 UBDSV06 SAVING              DRN IN MODEL GWF_1            PACKAGE GWF_1           CONNECTED TO MODEL GWF_1            PACKAGE DRN_SYS1         ON UNIT   1019 AT TIME STEP      1, STRESS PERIOD    330
 UBDSV06 SAVING              RIV IN MODEL GWF_1            PACKAGE GWF_1           CONNECTED TO MODEL GWF_1            PACKAGE RIV_SYS1         ON UNIT   1019 AT TIME STEP      1, STRESS PERIOD    330
 UBDSV06 SAVING              RIV IN MODEL GWF_1            PACKAGE GWF_1           CONNECTED TO MODEL GWF_1            PACKAGE RIV_SYS2         ON UNIT   1019 AT TIME STEP      1, STRESS PERIOD    330

 HEAD WILL BE SAVED ON UNIT 1018 AT END OF TIME STEP    1, STRESS PERIOD  330


  VOLUME BUDGET FOR ENTIRE MODEL AT END OF TIME STEP    1, STRESS PERIOD 330
  ---------------------------------------------------------------------------------------------------

     CUMULATIVE VOLUME      L**3       RATES FOR THIS TIME STEP      L**3/T          PACKAGE NAME    
     ------------------                 ------------------------                     ----------------

           IN:                                      IN:
           ---                                      ---
              STO-SS =      283942.8900                STO-SS =         746.2909     STORAGE                          
                 WEL =      280326.6855                   WEL =         639.4886     RIV_CORR                         
                 DRN =           0.0000                   DRN =           0.0000     DRN_SYS1                         
                 RIV =      273055.6713                   RIV =         589.1189     RIV_SYS1                         
                 RIV =           0.0000                   RIV =           0.0000     RIV_SYS2                         
                 RCH =      522186.2166                   RCH =         860.3243     RCH_MSW                          

            TOTAL IN =     1359511.4635              TOTAL IN =        2835.2227

          OUT:                                     OUT:
          ----                                     ----
              STO-SS =      218340.6470                STO-SS =          28.6544     STORAGE                          
                 WEL =      347647.3595                   WEL =         908.9341     RIV_CORR                         
                 DRN =       84960.5380                   DRN =         266.6741     DRN_SYS1                         
                 RIV =      337551.0629                   RIV =         917.3471     RIV_SYS1                         
                 RIV =      228831.6634                   RIV =         713.6068     RIV_SYS2                         
                 RCH =      142184.0542                   RCH =           0.0000     RCH_MSW                          

           TOTAL OUT =     1359515.3251             TOTAL OUT =        2835.2166

            IN - OUT =          -3.8616              IN - OUT =       6.1465E-03

 PERCENT DISCREPANCY =          -0.00     PERCENT DISCREPANCY =           0.00




         TIME SUMMARY AT END OF TIME STEP    1 IN STRESS PERIOD  330
                    SECONDS     MINUTES      HOURS       DAYS        YEARS
                    -----------------------------------------------------------
   TIME STEP LENGTH  86400.      1440.0      24.000      1.0000     2.73785E-03
 STRESS PERIOD TIME  86400.      1440.0      24.000      1.0000     2.73785E-03
         TOTAL TIME 2.85120E+07 4.75200E+05  7920.0      330.00     0.90349    


end timestep


start timestep kper="331" kstp="1" mode="normal"

 #Stressperiod Save Options

 BEGIN READING OUTPUT CONTROL FOR STRESS PERIOD 331
      ALL TIME STEPS WILL BE SAVED
      ALL TIME STEPS WILL BE SAVED

 END READING OUTPUT CONTROL FOR STRESS PERIOD 331


 PROCESSING STORAGE PERIOD DATA
 END PROCESSING STORAGE PERIOD DATA


 STRESS PERIOD 331 IS TRANSIENT


 REUSING WELS FROM LAST STRESS PERIOD

 REUSING DRNS FROM LAST STRESS PERIOD

 REUSING RIVS FROM LAST STRESS PERIOD

 REUSING RIVS FROM LAST STRESS PERIOD

 REUSING RCHS FROM LAST STRESS PERIOD
 UBDSV06 SAVING              DRN IN MODEL GWF_1            PACKAGE GWF_1           CONNECTED TO MODEL GWF_1            PACKAGE DRN_SYS1         ON UNIT   1019 AT TIME STEP      1, STRESS PERIOD    331
 UBDSV06 SAVING              RIV IN MODEL GWF_1            PACKAGE GWF_1           CONNECTED TO MODEL GWF_1            PACKAGE RIV_SYS1         ON UNIT   1019 AT TIME STEP      1, STRESS PERIOD    331
 UBDSV06 SAVING              RIV IN MODEL GWF_1            PACKAGE GWF_1           CONNECTED TO MODEL GWF_1            PACKAGE RIV_SYS2         ON UNIT   1019 AT TIME STEP      1, STRESS PERIOD    331

 HEAD WILL BE SAVED ON UNIT 1018 AT END OF TIME STEP    1, STRESS PERIOD  331


  VOLUME BUDGET FOR ENTIRE MODEL AT END OF TIME STEP    1, STRESS PERIOD 331
  ---------------------------------------------------------------------------------------------------

     CUMULATIVE VOLUME      L**3       RATES FOR THIS TIME STEP      L**3/T          PACKAGE NAME    
     ------------------                 ------------------------                     ----------------

           IN:                                      IN:
           ---                                      ---
              STO-SS =      284798.1249                STO-SS =         855.2349     STORAGE                          
                 WEL =      280915.8044                   WEL =         589.1189     RIV_CORR                         
                 DRN =           0.0000                   DRN =           0.0000     DRN_SYS1                         
                 RIV =      273731.0513                   RIV =         675.3800     RIV_SYS1                         
                 RIV =           0.0000                   RIV =           0.0000     RIV_SYS2                         
                 RCH =      522842.0682                   RCH =         655.8516     RCH_MSW                          

            TOTAL IN =     1362287.0488              TOTAL IN =        2775.5853

          OUT:                                     OUT:
          ----                                     ----
              STO-SS =      218340.6470                STO-SS =           0.0000     STORAGE                          
                 WEL =      348564.7066                   WEL =         917.3471     RIV_CORR                         
                 DRN =       85225.5935                   DRN =         265.0555     DRN_SYS1                         
                 RIV =      338434.6963                   RIV =         883.6334     RIV_SYS1                         
                 RIV =      229541.2276                   RIV =         709.5642     RIV_SYS2                         
                 RCH =      142184.0542                   RCH =           0.0000     RCH_MSW                          

           TOTAL OUT =     1362290.9253             TOTAL OUT =        2775.6002

            IN - OUT =          -3.8765              IN - OUT =      -1.4863E-02

 PERCENT DISCREPANCY =          -0.00     PERCENT DISCREPANCY =          -0.00




         TIME SUMMARY AT END OF TIME STEP    1 IN STRESS PERIOD  331
                    SECONDS     MINUTES      HOURS       DAYS        YEARS
                    -----------------------------------------------------------
   TIME STEP LENGTH  86400.      1440.0      24.000      1.0000     2.73785E-03
 STRESS PERIOD TIME  86400.      1440.0      24.000      1.0000     2.73785E-03
         TOTAL TIME 2.85984E+07 4.76640E+05  7944.0      331.00     0.90623    


end timestep


start timestep kper="332" kstp="1" mode="normal"

 #Stressperiod Save Options

 BEGIN READING OUTPUT CONTROL FOR STRESS PERIOD 332
      ALL TIME STEPS WILL BE SAVED
      ALL TIME STEPS WILL BE SAVED

 END READING OUTPUT CONTROL FOR STRESS PERIOD 332


 PROCESSING STORAGE PERIOD DATA
 END PROCESSING STORAGE PERIOD DATA


 STRESS PERIOD 332 IS TRANSIENT


 REUSING WELS FROM LAST STRESS PERIOD

 REUSING DRNS FROM LAST STRESS PERIOD

 REUSING RIVS FROM LAST STRESS PERIOD

 REUSING RIVS FROM LAST STRESS PERIOD

 REUSING RCHS FROM LAST STRESS PERIOD
 UBDSV06 SAVING              DRN IN MODEL GWF_1            PACKAGE GWF_1           CONNECTED TO MODEL GWF_1            PACKAGE DRN_SYS1         ON UNIT   1019 AT TIME STEP      1, STRESS PERIOD    332
 UBDSV06 SAVING              RIV IN MODEL GWF_1            PACKAGE GWF_1           CONNECTED TO MODEL GWF_1            PACKAGE RIV_SYS1         ON UNIT   1019 AT TIME STEP      1, STRESS PERIOD    332
 UBDSV06 SAVING              RIV IN MODEL GWF_1            PACKAGE GWF_1           CONNECTED TO MODEL GWF_1            PACKAGE RIV_SYS2         ON UNIT   1019 AT TIME STEP      1, STRESS PERIOD    332

 HEAD WILL BE SAVED ON UNIT 1018 AT END OF TIME STEP    1, STRESS PERIOD  332


  VOLUME BUDGET FOR ENTIRE MODEL AT END OF TIME STEP    1, STRESS PERIOD 332
  ---------------------------------------------------------------------------------------------------

     CUMULATIVE VOLUME      L**3       RATES FOR THIS TIME STEP      L**3/T          PACKAGE NAME    
     ------------------                 ------------------------                     ----------------

           IN:                                      IN:
           ---                                      ---
              STO-SS =      285623.4258                STO-SS =         825.3009     STORAGE                          
                 WEL =      281591.1843                   WEL =         675.3800     RIV_CORR                         
                 DRN =           0.0000                   DRN =           0.0000     DRN_SYS1                         
                 RIV =      274399.1019                   RIV =         668.0506     RIV_SYS1                         
                 RIV =           0.0000                   RIV =           0.0000     RIV_SYS2                         
                 RCH =      523400.6892                   RCH =         558.6209     RCH_MSW                          

            TOTAL IN =     1365014.4011              TOTAL IN =        2727.3524

          OUT:                                     OUT:
          ----                                     ----
              STO-SS =      218343.5440                STO-SS =           2.8970     STORAGE                          
                 WEL =      349448.3400                   WEL =         883.6334     RIV_CORR                         
                 DRN =       85489.0542                   DRN =         263.4606     DRN_SYS1                         
                 RIV =      339304.5377                   RIV =         869.8414     RIV_SYS1                         
                 RIV =      230246.8265                   RIV =         705.5989     RIV_SYS2                         
                 RCH =      142186.0379                   RCH =           1.9837     RCH_MSW                          

           TOTAL OUT =     1365018.3403             TOTAL OUT =        2727.4150

            IN - OUT =          -3.9392              IN - OUT =      -6.2678E-02

 PERCENT DISCREPANCY =          -0.00     PERCENT DISCREPANCY =          -0.00




         TIME SUMMARY AT END OF TIME STEP    1 IN STRESS PERIOD  332
                    SECONDS     MINUTES      HOURS       DAYS        YEARS
                    -----------------------------------------------------------
   TIME STEP LENGTH  86400.      1440.0      24.000      1.0000     2.73785E-03
 STRESS PERIOD TIME  86400.      1440.0      24.000      1.0000     2.73785E-03
         TOTAL TIME 2.86848E+07 4.78080E+05  7968.0      332.00     0.90897    


end timestep


start timestep kper="333" kstp="1" mode="normal"

 #Stressperiod Save Options

 BEGIN READING OUTPUT CONTROL FOR STRESS PERIOD 333
      ALL TIME STEPS WILL BE SAVED
      ALL TIME STEPS WILL BE SAVED

 END READING OUTPUT CONTROL FOR STRESS PERIOD 333


 PROCESSING STORAGE PERIOD DATA
 END PROCESSING STORAGE PERIOD DATA


 STRESS PERIOD 333 IS TRANSIENT


 REUSING WELS FROM LAST STRESS PERIOD

 REUSING DRNS FROM LAST STRESS PERIOD

 REUSING RIVS FROM LAST STRESS PERIOD

 REUSING RIVS FROM LAST STRESS PERIOD

 REUSING RCHS FROM LAST STRESS PERIOD
 UBDSV06 SAVING              DRN IN MODEL GWF_1            PACKAGE GWF_1           CONNECTED TO MODEL GWF_1            PACKAGE DRN_SYS1         ON UNIT   1019 AT TIME STEP      1, STRESS PERIOD    333
 UBDSV06 SAVING              RIV IN MODEL GWF_1            PACKAGE GWF_1           CONNECTED TO MODEL GWF_1            PACKAGE RIV_SYS1         ON UNIT   1019 AT TIME STEP      1, STRESS PERIOD    333
 UBDSV06 SAVING              RIV IN MODEL GWF_1            PACKAGE GWF_1           CONNECTED TO MODEL GWF_1            PACKAGE RIV_SYS2         ON UNIT   1019 AT TIME STEP      1, STRESS PERIOD    333

 HEAD WILL BE SAVED ON UNIT 1018 AT END OF TIME STEP    1, STRESS PERIOD  333


  VOLUME BUDGET FOR ENTIRE MODEL AT END OF TIME STEP    1, STRESS PERIOD 333
  ---------------------------------------------------------------------------------------------------

     CUMULATIVE VOLUME      L**3       RATES FOR THIS TIME STEP      L**3/T          PACKAGE NAME    
     ------------------                 ------------------------                     ----------------

           IN:                                      IN:
           ---                                      ---
              STO-SS =      286465.2018                STO-SS =         841.7760     STORAGE                          
                 WEL =      282259.2349                   WEL =         668.0506     RIV_CORR                         
                 DRN =           0.0000                   DRN =           0.0000     DRN_SYS1                         
                 RIV =      275111.3741                   RIV =         712.2722     RIV_SYS1                         
                 RIV =           0.0000                   RIV =           0.0000     RIV_SYS2                         
                 RCH =      523884.2839                   RCH =         483.5947     RCH_MSW                          

            TOTAL IN =     1367720.0947              TOTAL IN =        2705.6936

          OUT:                                     OUT:
          ----                                     ----
              STO-SS =      218343.5440                STO-SS =           0.0000     STORAGE                          
                 WEL =      350318.1814                   WEL =         869.8414     RIV_CORR                         
                 DRN =       85750.9233                   DRN =         261.8691     DRN_SYS1                         
                 RIV =      340161.1716                   RIV =         856.6339     RIV_SYS1                         
                 RIV =      230948.4888                   RIV =         701.6623     RIV_SYS2                         
                 RCH =      142201.7037                   RCH =          15.6657     RCH_MSW                          

           TOTAL OUT =     1367724.0127             TOTAL OUT =        2705.6724

            IN - OUT =          -3.9180              IN - OUT =       2.1172E-02

 PERCENT DISCREPANCY =          -0.00     PERCENT DISCREPANCY =           0.00




         TIME SUMMARY AT END OF TIME STEP    1 IN STRESS PERIOD  333
                    SECONDS     MINUTES      HOURS       DAYS        YEARS
                    -----------------------------------------------------------
   TIME STEP LENGTH  86400.      1440.0      24.000      1.0000     2.73785E-03
 STRESS PERIOD TIME  86400.      1440.0      24.000      1.0000     2.73785E-03
         TOTAL TIME 2.87712E+07 4.79520E+05  7992.0      333.00     0.91170    


end timestep


start timestep kper="334" kstp="1" mode="normal"

 #Stressperiod Save Options

 BEGIN READING OUTPUT CONTROL FOR STRESS PERIOD 334
      ALL TIME STEPS WILL BE SAVED
      ALL TIME STEPS WILL BE SAVED

 END READING OUTPUT CONTROL FOR STRESS PERIOD 334


 PROCESSING STORAGE PERIOD DATA
 END PROCESSING STORAGE PERIOD DATA


 STRESS PERIOD 334 IS TRANSIENT


 REUSING WELS FROM LAST STRESS PERIOD

 REUSING DRNS FROM LAST STRESS PERIOD

 REUSING RIVS FROM LAST STRESS PERIOD

 REUSING RIVS FROM LAST STRESS PERIOD

 REUSING RCHS FROM LAST STRESS PERIOD
 UBDSV06 SAVING              DRN IN MODEL GWF_1            PACKAGE GWF_1           CONNECTED TO MODEL GWF_1            PACKAGE DRN_SYS1         ON UNIT   1019 AT TIME STEP      1, STRESS PERIOD    334
 UBDSV06 SAVING              RIV IN MODEL GWF_1            PACKAGE GWF_1           CONNECTED TO MODEL GWF_1            PACKAGE RIV_SYS1         ON UNIT   1019 AT TIME STEP      1, STRESS PERIOD    334
 UBDSV06 SAVING              RIV IN MODEL GWF_1            PACKAGE GWF_1           CONNECTED TO MODEL GWF_1            PACKAGE RIV_SYS2         ON UNIT   1019 AT TIME STEP      1, STRESS PERIOD    334

 HEAD WILL BE SAVED ON UNIT 1018 AT END OF TIME STEP    1, STRESS PERIOD  334


  VOLUME BUDGET FOR ENTIRE MODEL AT END OF TIME STEP    1, STRESS PERIOD 334
  ---------------------------------------------------------------------------------------------------

     CUMULATIVE VOLUME      L**3       RATES FOR THIS TIME STEP      L**3/T          PACKAGE NAME    
     ------------------                 ------------------------                     ----------------

           IN:                                      IN:
           ---                                      ---
              STO-SS =      287276.2474                STO-SS =         811.0456     STORAGE                          
                 WEL =      282971.5071                   WEL =         712.2722     RIV_CORR                         
                 DRN =           0.0000                   DRN =           0.0000     DRN_SYS1                         
                 RIV =      275835.6469                   RIV =         724.2728     RIV_SYS1                         
                 RIV =           0.0000                   RIV =           0.0000     RIV_SYS2                         
                 RCH =      524311.0059                   RCH =         426.7221     RCH_MSW                          

            TOTAL IN =     1370394.4074              TOTAL IN =        2674.3127

          OUT:                                     OUT:
          ----                                     ----
              STO-SS =      218344.4345                STO-SS =           0.8905     STORAGE                          
                 WEL =      351174.8152                   WEL =         856.6339     RIV_CORR                         
                 DRN =       86011.2314                   DRN =         260.3081     DRN_SYS1                         
                 RIV =      341006.2664                   RIV =         845.0948     RIV_SYS1                         
                 RIV =      231646.2922                   RIV =         697.8034     RIV_SYS2                         
                 RCH =      142215.3015                   RCH =          13.5978     RCH_MSW                          

           TOTAL OUT =     1370398.3413             TOTAL OUT =        2674.3285

            IN - OUT =          -3.9339              IN - OUT =      -1.5880E-02

 PERCENT DISCREPANCY =          -0.00     PERCENT DISCREPANCY =          -0.00




         TIME SUMMARY AT END OF TIME STEP    1 IN STRESS PERIOD  334
                    SECONDS     MINUTES      HOURS       DAYS        YEARS
                    -----------------------------------------------------------
   TIME STEP LENGTH  86400.      1440.0      24.000      1.0000     2.73785E-03
 STRESS PERIOD TIME  86400.      1440.0      24.000      1.0000     2.73785E-03
         TOTAL TIME 2.88576E+07 4.80960E+05  8016.0      334.00     0.91444    


end timestep


start timestep kper="335" kstp="1" mode="normal"

 #Stressperiod Save Options

 BEGIN READING OUTPUT CONTROL FOR STRESS PERIOD 335
      ALL TIME STEPS WILL BE SAVED
      ALL TIME STEPS WILL BE SAVED

 END READING OUTPUT CONTROL FOR STRESS PERIOD 335


 PROCESSING STORAGE PERIOD DATA
 END PROCESSING STORAGE PERIOD DATA


 STRESS PERIOD 335 IS TRANSIENT


 REUSING WELS FROM LAST STRESS PERIOD

 REUSING DRNS FROM LAST STRESS PERIOD

 REUSING RIVS FROM LAST STRESS PERIOD

 REUSING RIVS FROM LAST STRESS PERIOD

 REUSING RCHS FROM LAST STRESS PERIOD
 UBDSV06 SAVING              DRN IN MODEL GWF_1            PACKAGE GWF_1           CONNECTED TO MODEL GWF_1            PACKAGE DRN_SYS1         ON UNIT   1019 AT TIME STEP      1, STRESS PERIOD    335
 UBDSV06 SAVING              RIV IN MODEL GWF_1            PACKAGE GWF_1           CONNECTED TO MODEL GWF_1            PACKAGE RIV_SYS1         ON UNIT   1019 AT TIME STEP      1, STRESS PERIOD    335
 UBDSV06 SAVING              RIV IN MODEL GWF_1            PACKAGE GWF_1           CONNECTED TO MODEL GWF_1            PACKAGE RIV_SYS2         ON UNIT   1019 AT TIME STEP      1, STRESS PERIOD    335

 HEAD WILL BE SAVED ON UNIT 1018 AT END OF TIME STEP    1, STRESS PERIOD  335


  VOLUME BUDGET FOR ENTIRE MODEL AT END OF TIME STEP    1, STRESS PERIOD 335
  ---------------------------------------------------------------------------------------------------

     CUMULATIVE VOLUME      L**3       RATES FOR THIS TIME STEP      L**3/T          PACKAGE NAME    
     ------------------                 ------------------------                     ----------------

           IN:                                      IN:
           ---                                      ---
              STO-SS =      288093.7831                STO-SS =         817.5357     STORAGE                          
                 WEL =      283695.7799                   WEL =         724.2728     RIV_CORR                         
                 DRN =           0.0000                   DRN =           0.0000     DRN_SYS1                         
                 RIV =      276598.7116                   RIV =         763.0647     RIV_SYS1                         
                 RIV =           0.0000                   RIV =           0.0000     RIV_SYS2                         
                 RCH =      524684.8792                   RCH =         373.8732     RCH_MSW                          

            TOTAL IN =     1373073.1538              TOTAL IN =        2678.7464

          OUT:                                     OUT:
          ----                                     ----
              STO-SS =      218344.4345                STO-SS =           0.0000     STORAGE                          
                 WEL =      352019.9101                   WEL =         845.0948     RIV_CORR                         
                 DRN =       86270.0046                   DRN =         258.7733     DRN_SYS1                         
                 RIV =      341841.3707                   RIV =         835.1043     RIV_SYS1                         
                 RIV =      232340.3051                   RIV =         694.0129     RIV_SYS2                         
                 RCH =      142261.0718                   RCH =          45.7703     RCH_MSW                          

           TOTAL OUT =     1373077.0968             TOTAL OUT =        2678.7555

            IN - OUT =          -3.9430              IN - OUT =      -9.1051E-03

 PERCENT DISCREPANCY =          -0.00     PERCENT DISCREPANCY =          -0.00




         TIME SUMMARY AT END OF TIME STEP    1 IN STRESS PERIOD  335
                    SECONDS     MINUTES      HOURS       DAYS        YEARS
                    -----------------------------------------------------------
   TIME STEP LENGTH  86400.      1440.0      24.000      1.0000     2.73785E-03
 STRESS PERIOD TIME  86400.      1440.0      24.000      1.0000     2.73785E-03
         TOTAL TIME 2.89440E+07 4.82400E+05  8040.0      335.00     0.91718    


end timestep


start timestep kper="336" kstp="1" mode="normal"

 #Stressperiod Save Options

 BEGIN READING OUTPUT CONTROL FOR STRESS PERIOD 336
      ALL TIME STEPS WILL BE SAVED
      ALL TIME STEPS WILL BE SAVED

 END READING OUTPUT CONTROL FOR STRESS PERIOD 336


 PROCESSING STORAGE PERIOD DATA
 END PROCESSING STORAGE PERIOD DATA


 STRESS PERIOD 336 IS TRANSIENT


 REUSING WELS FROM LAST STRESS PERIOD

 REUSING DRNS FROM LAST STRESS PERIOD

 REUSING RIVS FROM LAST STRESS PERIOD

 REUSING RIVS FROM LAST STRESS PERIOD

 REUSING RCHS FROM LAST STRESS PERIOD
 UBDSV06 SAVING              DRN IN MODEL GWF_1            PACKAGE GWF_1           CONNECTED TO MODEL GWF_1            PACKAGE DRN_SYS1         ON UNIT   1019 AT TIME STEP      1, STRESS PERIOD    336
 UBDSV06 SAVING              RIV IN MODEL GWF_1            PACKAGE GWF_1           CONNECTED TO MODEL GWF_1            PACKAGE RIV_SYS1         ON UNIT   1019 AT TIME STEP      1, STRESS PERIOD    336
 UBDSV06 SAVING              RIV IN MODEL GWF_1            PACKAGE GWF_1           CONNECTED TO MODEL GWF_1            PACKAGE RIV_SYS2         ON UNIT   1019 AT TIME STEP      1, STRESS PERIOD    336

 HEAD WILL BE SAVED ON UNIT 1018 AT END OF TIME STEP    1, STRESS PERIOD  336


  VOLUME BUDGET FOR ENTIRE MODEL AT END OF TIME STEP    1, STRESS PERIOD 336
  ---------------------------------------------------------------------------------------------------

     CUMULATIVE VOLUME      L**3       RATES FOR THIS TIME STEP      L**3/T          PACKAGE NAME    
     ------------------                 ------------------------                     ----------------

           IN:                                      IN:
           ---                                      ---
              STO-SS =      288888.6168                STO-SS =         794.8337     STORAGE                          
                 WEL =      284458.8447                   WEL =         763.0647     RIV_CORR                         
                 DRN =           0.0000                   DRN =           0.0000     DRN_SYS1                         
                 RIV =      277379.7256                   RIV =         781.0140     RIV_SYS1                         
                 RIV =           0.0000                   RIV =           0.0000     RIV_SYS2                         
                 RCH =      525013.0855                   RCH =         328.2063     RCH_MSW                          

            TOTAL IN =     1375740.2726              TOTAL IN =        2667.1188

          OUT:                                     OUT:
          ----                                     ----
              STO-SS =      218344.6088                STO-SS =           0.1743     STORAGE                          
                 WEL =      352855.0144                   WEL =         835.1043     RIV_CORR                         
                 DRN =       86527.2771                   DRN =         257.2724     DRN_SYS1                         
                 RIV =      342667.4831                   RIV =         826.1124     RIV_SYS1                         
                 RIV =      233030.6122                   RIV =         690.3071     RIV_SYS2                         
                 RCH =      142319.2341                   RCH =          58.1623     RCH_MSW                          

           TOTAL OUT =     1375744.2296             TOTAL OUT =        2667.1328

            IN - OUT =          -3.9570              IN - OUT =      -1.4043E-02

 PERCENT DISCREPANCY =          -0.00     PERCENT DISCREPANCY =          -0.00




         TIME SUMMARY AT END OF TIME STEP    1 IN STRESS PERIOD  336
                    SECONDS     MINUTES      HOURS       DAYS        YEARS
                    -----------------------------------------------------------
   TIME STEP LENGTH  86400.      1440.0      24.000      1.0000     2.73785E-03
 STRESS PERIOD TIME  86400.      1440.0      24.000      1.0000     2.73785E-03
         TOTAL TIME 2.90304E+07 4.83840E+05  8064.0      336.00     0.91992    


end timestep


start timestep kper="337" kstp="1" mode="normal"

 #Stressperiod Save Options

 BEGIN READING OUTPUT CONTROL FOR STRESS PERIOD 337
      ALL TIME STEPS WILL BE SAVED
      ALL TIME STEPS WILL BE SAVED

 END READING OUTPUT CONTROL FOR STRESS PERIOD 337


 PROCESSING STORAGE PERIOD DATA
 END PROCESSING STORAGE PERIOD DATA


 STRESS PERIOD 337 IS TRANSIENT


 REUSING WELS FROM LAST STRESS PERIOD

 REUSING DRNS FROM LAST STRESS PERIOD

 REUSING RIVS FROM LAST STRESS PERIOD

 REUSING RIVS FROM LAST STRESS PERIOD

 REUSING RCHS FROM LAST STRESS PERIOD
 UBDSV06 SAVING              DRN IN MODEL GWF_1            PACKAGE GWF_1           CONNECTED TO MODEL GWF_1            PACKAGE DRN_SYS1         ON UNIT   1019 AT TIME STEP      1, STRESS PERIOD    337
 UBDSV06 SAVING              RIV IN MODEL GWF_1            PACKAGE GWF_1           CONNECTED TO MODEL GWF_1            PACKAGE RIV_SYS1         ON UNIT   1019 AT TIME STEP      1, STRESS PERIOD    337
 UBDSV06 SAVING              RIV IN MODEL GWF_1            PACKAGE GWF_1           CONNECTED TO MODEL GWF_1            PACKAGE RIV_SYS2         ON UNIT   1019 AT TIME STEP      1, STRESS PERIOD    337

 HEAD WILL BE SAVED ON UNIT 1018 AT END OF TIME STEP    1, STRESS PERIOD  337


  VOLUME BUDGET FOR ENTIRE MODEL AT END OF TIME STEP    1, STRESS PERIOD 337
  ---------------------------------------------------------------------------------------------------

     CUMULATIVE VOLUME      L**3       RATES FOR THIS TIME STEP      L**3/T          PACKAGE NAME    
     ------------------                 ------------------------                     ----------------

           IN:                                      IN:
           ---                                      ---
              STO-SS =      289484.3592                STO-SS =         595.7423     STORAGE                          
                 WEL =      285239.8587                   WEL =         781.0140     RIV_CORR                         
                 DRN =           0.0000                   DRN =           0.0000     DRN_SYS1                         
                 RIV =      278059.5393                   RIV =         679.8137     RIV_SYS1                         
                 RIV =           0.0000                   RIV =           0.0000     RIV_SYS2                         
                 RCH =      525655.5570                   RCH =         642.4715     RCH_MSW                          

            TOTAL IN =     1378439.3141              TOTAL IN =        2699.0415

          OUT:                                     OUT:
          ----                                     ----
              STO-SS =      218434.9949                STO-SS =          90.3861     STORAGE                          
                 WEL =      353681.1268                   WEL =         826.1124     RIV_CORR                         
                 DRN =       86783.3446                   DRN =         256.0675     DRN_SYS1                         
                 RIV =      343506.6374                   RIV =         839.1543     RIV_SYS1                         
                 RIV =      233717.9131                   RIV =         687.3009     RIV_SYS2                         
                 RCH =      142319.2341                   RCH =           0.0000     RCH_MSW                          

           TOTAL OUT =     1378443.2509             TOTAL OUT =        2699.0213

            IN - OUT =          -3.9368              IN - OUT =       2.0275E-02

 PERCENT DISCREPANCY =          -0.00     PERCENT DISCREPANCY =           0.00




         TIME SUMMARY AT END OF TIME STEP    1 IN STRESS PERIOD  337
                    SECONDS     MINUTES      HOURS       DAYS        YEARS
                    -----------------------------------------------------------
   TIME STEP LENGTH  86400.      1440.0      24.000      1.0000     2.73785E-03
 STRESS PERIOD TIME  86400.      1440.0      24.000      1.0000     2.73785E-03
         TOTAL TIME 2.91168E+07 4.85280E+05  8088.0      337.00     0.92266    


end timestep


start timestep kper="338" kstp="1" mode="normal"

 #Stressperiod Save Options

 BEGIN READING OUTPUT CONTROL FOR STRESS PERIOD 338
      ALL TIME STEPS WILL BE SAVED
      ALL TIME STEPS WILL BE SAVED

 END READING OUTPUT CONTROL FOR STRESS PERIOD 338


 PROCESSING STORAGE PERIOD DATA
 END PROCESSING STORAGE PERIOD DATA


 STRESS PERIOD 338 IS TRANSIENT


 REUSING WELS FROM LAST STRESS PERIOD

 REUSING DRNS FROM LAST STRESS PERIOD

 REUSING RIVS FROM LAST STRESS PERIOD

 REUSING RIVS FROM LAST STRESS PERIOD

 REUSING RCHS FROM LAST STRESS PERIOD
 UBDSV06 SAVING              DRN IN MODEL GWF_1            PACKAGE GWF_1           CONNECTED TO MODEL GWF_1            PACKAGE DRN_SYS1         ON UNIT   1019 AT TIME STEP      1, STRESS PERIOD    338
 UBDSV06 SAVING              RIV IN MODEL GWF_1            PACKAGE GWF_1           CONNECTED TO MODEL GWF_1            PACKAGE RIV_SYS1         ON UNIT   1019 AT TIME STEP      1, STRESS PERIOD    338
 UBDSV06 SAVING              RIV IN MODEL GWF_1            PACKAGE GWF_1           CONNECTED TO MODEL GWF_1            PACKAGE RIV_SYS2         ON UNIT   1019 AT TIME STEP      1, STRESS PERIOD    338

 HEAD WILL BE SAVED ON UNIT 1018 AT END OF TIME STEP    1, STRESS PERIOD  338


  VOLUME BUDGET FOR ENTIRE MODEL AT END OF TIME STEP    1, STRESS PERIOD 338
  ---------------------------------------------------------------------------------------------------

     CUMULATIVE VOLUME      L**3       RATES FOR THIS TIME STEP      L**3/T          PACKAGE NAME    
     ------------------                 ------------------------                     ----------------

           IN:                                      IN:
           ---                                      ---
              STO-SS =      290016.5369                STO-SS =         532.1777     STORAGE                          
                 WEL =      285919.6723                   WEL =         679.8137     RIV_CORR                         
                 DRN =           0.0000                   DRN =           0.0000     DRN_SYS1                         
                 RIV =      278779.3409                   RIV =         719.8016     RIV_SYS1                         
                 RIV =           0.0000                   RIV =           0.0000     RIV_SYS2                         
                 RCH =      526337.0417                   RCH =         681.4847     RCH_MSW                          

            TOTAL IN =     1381052.5919              TOTAL IN =        2613.2778

          OUT:                                     OUT:
          ----                                     ----
              STO-SS =      218449.6967                STO-SS =          14.7018     STORAGE                          
                 WEL =      354520.2811                   WEL =         839.1543     RIV_CORR                         
                 DRN =       87038.4171                   DRN =         255.0725     DRN_SYS1                         
                 RIV =      344326.2457                   RIV =         819.6083     RIV_SYS1                         
                 RIV =      234402.6929                   RIV =         684.7798     RIV_SYS2                         
                 RCH =      142319.2341                   RCH =           0.0000     RCH_MSW                          

           TOTAL OUT =     1381056.5676             TOTAL OUT =        2613.3167

            IN - OUT =          -3.9757              IN - OUT =      -3.8921E-02

 PERCENT DISCREPANCY =          -0.00     PERCENT DISCREPANCY =          -0.00




         TIME SUMMARY AT END OF TIME STEP    1 IN STRESS PERIOD  338
                    SECONDS     MINUTES      HOURS       DAYS        YEARS
                    -----------------------------------------------------------
   TIME STEP LENGTH  86400.      1440.0      24.000      1.0000     2.73785E-03
 STRESS PERIOD TIME  86400.      1440.0      24.000      1.0000     2.73785E-03
         TOTAL TIME 2.92032E+07 4.86720E+05  8112.0      338.00     0.92539    


end timestep


start timestep kper="339" kstp="1" mode="normal"

 #Stressperiod Save Options

 BEGIN READING OUTPUT CONTROL FOR STRESS PERIOD 339
      ALL TIME STEPS WILL BE SAVED
      ALL TIME STEPS WILL BE SAVED

 END READING OUTPUT CONTROL FOR STRESS PERIOD 339


 PROCESSING STORAGE PERIOD DATA
 END PROCESSING STORAGE PERIOD DATA


 STRESS PERIOD 339 IS TRANSIENT


 REUSING WELS FROM LAST STRESS PERIOD

 REUSING DRNS FROM LAST STRESS PERIOD

 REUSING RIVS FROM LAST STRESS PERIOD

 REUSING RIVS FROM LAST STRESS PERIOD

 REUSING RCHS FROM LAST STRESS PERIOD
 UBDSV06 SAVING              DRN IN MODEL GWF_1            PACKAGE GWF_1           CONNECTED TO MODEL GWF_1            PACKAGE DRN_SYS1         ON UNIT   1019 AT TIME STEP      1, STRESS PERIOD    339
 UBDSV06 SAVING              RIV IN MODEL GWF_1            PACKAGE GWF_1           CONNECTED TO MODEL GWF_1            PACKAGE RIV_SYS1         ON UNIT   1019 AT TIME STEP      1, STRESS PERIOD    339
 UBDSV06 SAVING              RIV IN MODEL GWF_1            PACKAGE GWF_1           CONNECTED TO MODEL GWF_1            PACKAGE RIV_SYS2         ON UNIT   1019 AT TIME STEP      1, STRESS PERIOD    339

 HEAD WILL BE SAVED ON UNIT 1018 AT END OF TIME STEP    1, STRESS PERIOD  339


  VOLUME BUDGET FOR ENTIRE MODEL AT END OF TIME STEP    1, STRESS PERIOD 339
  ---------------------------------------------------------------------------------------------------

     CUMULATIVE VOLUME      L**3       RATES FOR THIS TIME STEP      L**3/T          PACKAGE NAME    
     ------------------                 ------------------------                     ----------------

           IN:                                      IN:
           ---                                      ---
              STO-SS =      290478.3059                STO-SS =         461.7690     STORAGE                          
                 WEL =      286639.4740                   WEL =         719.8016     RIV_CORR                         
                 DRN =           0.0000                   DRN =           0.0000     DRN_SYS1                         
                 RIV =      279493.0107                   RIV =         713.6698     RIV_SYS1                         
                 RIV =           0.0000                   RIV =           0.0000     RIV_SYS2                         
                 RCH =      527025.3579                   RCH =         688.3162     RCH_MSW                          

            TOTAL IN =     1383636.1485              TOTAL IN =        2583.5566

          OUT:                                     OUT:
          ----                                     ----
              STO-SS =      218455.7798                STO-SS =           6.0831     STORAGE                          
                 WEL =      355339.8894                   WEL =         819.6083     RIV_CORR                         
                 DRN =       87292.6534                   DRN =         254.2363     DRN_SYS1                         
                 RIV =      345147.2681                   RIV =         821.0223     RIV_SYS1                         
                 RIV =      235085.3281                   RIV =         682.6351     RIV_SYS2                         
                 RCH =      142319.2341                   RCH =           0.0000     RCH_MSW                          

           TOTAL OUT =     1383640.1528             TOTAL OUT =        2583.5852

            IN - OUT =          -4.0042              IN - OUT =      -2.8564E-02

 PERCENT DISCREPANCY =          -0.00     PERCENT DISCREPANCY =          -0.00




         TIME SUMMARY AT END OF TIME STEP    1 IN STRESS PERIOD  339
                    SECONDS     MINUTES      HOURS       DAYS        YEARS
                    -----------------------------------------------------------
   TIME STEP LENGTH  86400.      1440.0      24.000      1.0000     2.73785E-03
 STRESS PERIOD TIME  86400.      1440.0      24.000      1.0000     2.73785E-03
         TOTAL TIME 2.92896E+07 4.88160E+05  8136.0      339.00     0.92813    


end timestep


start timestep kper="340" kstp="1" mode="normal"

 #Stressperiod Save Options

 BEGIN READING OUTPUT CONTROL FOR STRESS PERIOD 340
      ALL TIME STEPS WILL BE SAVED
      ALL TIME STEPS WILL BE SAVED

 END READING OUTPUT CONTROL FOR STRESS PERIOD 340


 PROCESSING STORAGE PERIOD DATA
 END PROCESSING STORAGE PERIOD DATA


 STRESS PERIOD 340 IS TRANSIENT


 REUSING WELS FROM LAST STRESS PERIOD

 REUSING DRNS FROM LAST STRESS PERIOD

 REUSING RIVS FROM LAST STRESS PERIOD

 REUSING RIVS FROM LAST STRESS PERIOD

 REUSING RCHS FROM LAST STRESS PERIOD
 UBDSV06 SAVING              DRN IN MODEL GWF_1            PACKAGE GWF_1           CONNECTED TO MODEL GWF_1            PACKAGE DRN_SYS1         ON UNIT   1019 AT TIME STEP      1, STRESS PERIOD    340
 UBDSV06 SAVING              RIV IN MODEL GWF_1            PACKAGE GWF_1           CONNECTED TO MODEL GWF_1            PACKAGE RIV_SYS1         ON UNIT   1019 AT TIME STEP      1, STRESS PERIOD    340
 UBDSV06 SAVING              RIV IN MODEL GWF_1            PACKAGE GWF_1           CONNECTED TO MODEL GWF_1            PACKAGE RIV_SYS2         ON UNIT   1019 AT TIME STEP      1, STRESS PERIOD    340

 HEAD WILL BE SAVED ON UNIT 1018 AT END OF TIME STEP    1, STRESS PERIOD  340


  VOLUME BUDGET FOR ENTIRE MODEL AT END OF TIME STEP    1, STRESS PERIOD 340
  ---------------------------------------------------------------------------------------------------

     CUMULATIVE VOLUME      L**3       RATES FOR THIS TIME STEP      L**3/T          PACKAGE NAME    
     ------------------                 ------------------------                     ----------------

           IN:                                      IN:
           ---                                      ---
              STO-SS =      291050.3797                STO-SS =         572.0738     STORAGE                          
                 WEL =      287353.1438                   WEL =         713.6698     RIV_CORR                         
                 DRN =           0.0000                   DRN =           0.0000     DRN_SYS1                         
                 RIV =      280284.8740                   RIV =         791.8633     RIV_SYS1                         
                 RIV =           0.0000                   RIV =           0.0000     RIV_SYS2                         
                 RCH =      527515.4546                   RCH =         490.0966     RCH_MSW                          

            TOTAL IN =     1386203.8520              TOTAL IN =        2567.7035

          OUT:                                     OUT:
          ----                                     ----
              STO-SS =      218455.7798                STO-SS =           0.0000     STORAGE                          
                 WEL =      356160.9117                   WEL =         821.0223     RIV_CORR                         
                 DRN =       87545.9988                   DRN =         253.3455     DRN_SYS1                         
                 RIV =      345958.4690                   RIV =         811.2009     RIV_SYS1                         
                 RIV =      235765.6988                   RIV =         680.3707     RIV_SYS2                         
                 RCH =      142321.0028                   RCH =           1.7687     RCH_MSW                          

           TOTAL OUT =     1386207.8609             TOTAL OUT =        2567.7082

            IN - OUT =          -4.0089              IN - OUT =      -4.6962E-03

 PERCENT DISCREPANCY =          -0.00     PERCENT DISCREPANCY =          -0.00




         TIME SUMMARY AT END OF TIME STEP    1 IN STRESS PERIOD  340
                    SECONDS     MINUTES      HOURS       DAYS        YEARS
                    -----------------------------------------------------------
   TIME STEP LENGTH  86400.      1440.0      24.000      1.0000     2.73785E-03
 STRESS PERIOD TIME  86400.      1440.0      24.000      1.0000     2.73785E-03
         TOTAL TIME 2.93760E+07 4.89600E+05  8160.0      340.00     0.93087    


end timestep


start timestep kper="341" kstp="1" mode="normal"

 #Stressperiod Save Options

 BEGIN READING OUTPUT CONTROL FOR STRESS PERIOD 341
      ALL TIME STEPS WILL BE SAVED
      ALL TIME STEPS WILL BE SAVED

 END READING OUTPUT CONTROL FOR STRESS PERIOD 341


 PROCESSING STORAGE PERIOD DATA
 END PROCESSING STORAGE PERIOD DATA


 STRESS PERIOD 341 IS TRANSIENT


 REUSING WELS FROM LAST STRESS PERIOD

 REUSING DRNS FROM LAST STRESS PERIOD

 REUSING RIVS FROM LAST STRESS PERIOD

 REUSING RIVS FROM LAST STRESS PERIOD

 REUSING RCHS FROM LAST STRESS PERIOD
 UBDSV06 SAVING              DRN IN MODEL GWF_1            PACKAGE GWF_1           CONNECTED TO MODEL GWF_1            PACKAGE DRN_SYS1         ON UNIT   1019 AT TIME STEP      1, STRESS PERIOD    341
 UBDSV06 SAVING              RIV IN MODEL GWF_1            PACKAGE GWF_1           CONNECTED TO MODEL GWF_1            PACKAGE RIV_SYS1         ON UNIT   1019 AT TIME STEP      1, STRESS PERIOD    341
 UBDSV06 SAVING              RIV IN MODEL GWF_1            PACKAGE GWF_1           CONNECTED TO MODEL GWF_1            PACKAGE RIV_SYS2         ON UNIT   1019 AT TIME STEP      1, STRESS PERIOD    341

 HEAD WILL BE SAVED ON UNIT 1018 AT END OF TIME STEP    1, STRESS PERIOD  341


  VOLUME BUDGET FOR ENTIRE MODEL AT END OF TIME STEP    1, STRESS PERIOD 341
  ---------------------------------------------------------------------------------------------------

     CUMULATIVE VOLUME      L**3       RATES FOR THIS TIME STEP      L**3/T          PACKAGE NAME    
     ------------------                 ------------------------                     ----------------

           IN:                                      IN:
           ---                                      ---
              STO-SS =      291390.0268                STO-SS =         339.6471     STORAGE                          
                 WEL =      288145.0070                   WEL =         791.8633     RIV_CORR                         
                 DRN =           0.0000                   DRN =           0.0000     DRN_SYS1                         
                 RIV =      280950.2565                   RIV =         665.3825     RIV_SYS1                         
                 RIV =           0.0000                   RIV =           0.0000     RIV_SYS2                         
                 RCH =      528437.1206                   RCH =         921.6661     RCH_MSW                          

            TOTAL IN =     1388922.4109              TOTAL IN =        2718.5589

          OUT:                                     OUT:
          ----                                     ----
              STO-SS =      218582.6180                STO-SS =         126.8382     STORAGE                          
                 WEL =      356972.1126                   WEL =         811.2009     RIV_CORR                         
                 DRN =       87798.7401                   DRN =         252.7413     DRN_SYS1                         
                 RIV =      346807.4351                   RIV =         848.9662     RIV_SYS1                         
                 RIV =      236444.5018                   RIV =         678.8030     RIV_SYS2                         
                 RCH =      142321.0028                   RCH =           0.0000     RCH_MSW                          

           TOTAL OUT =     1388926.4104             TOTAL OUT =        2718.5495

            IN - OUT =          -3.9995              IN - OUT =       9.4300E-03

 PERCENT DISCREPANCY =          -0.00     PERCENT DISCREPANCY =           0.00




         TIME SUMMARY AT END OF TIME STEP    1 IN STRESS PERIOD  341
                    SECONDS     MINUTES      HOURS       DAYS        YEARS
                    -----------------------------------------------------------
   TIME STEP LENGTH  86400.      1440.0      24.000      1.0000     2.73785E-03
 STRESS PERIOD TIME  86400.      1440.0      24.000      1.0000     2.73785E-03
         TOTAL TIME 2.94624E+07 4.91040E+05  8184.0      341.00     0.93361    


end timestep


start timestep kper="342" kstp="1" mode="normal"

 #Stressperiod Save Options

 BEGIN READING OUTPUT CONTROL FOR STRESS PERIOD 342
      ALL TIME STEPS WILL BE SAVED
      ALL TIME STEPS WILL BE SAVED

 END READING OUTPUT CONTROL FOR STRESS PERIOD 342


 PROCESSING STORAGE PERIOD DATA
 END PROCESSING STORAGE PERIOD DATA


 STRESS PERIOD 342 IS TRANSIENT


 REUSING WELS FROM LAST STRESS PERIOD

 REUSING DRNS FROM LAST STRESS PERIOD

 REUSING RIVS FROM LAST STRESS PERIOD

 REUSING RIVS FROM LAST STRESS PERIOD

 REUSING RCHS FROM LAST STRESS PERIOD
 UBDSV06 SAVING              DRN IN MODEL GWF_1            PACKAGE GWF_1           CONNECTED TO MODEL GWF_1            PACKAGE DRN_SYS1         ON UNIT   1019 AT TIME STEP      1, STRESS PERIOD    342
 UBDSV06 SAVING              RIV IN MODEL GWF_1            PACKAGE GWF_1           CONNECTED TO MODEL GWF_1            PACKAGE RIV_SYS1         ON UNIT   1019 AT TIME STEP      1, STRESS PERIOD    342
 UBDSV06 SAVING              RIV IN MODEL GWF_1            PACKAGE GWF_1           CONNECTED TO MODEL GWF_1            PACKAGE RIV_SYS2         ON UNIT   1019 AT TIME STEP      1, STRESS PERIOD    342

 HEAD WILL BE SAVED ON UNIT 1018 AT END OF TIME STEP    1, STRESS PERIOD  342


  VOLUME BUDGET FOR ENTIRE MODEL AT END OF TIME STEP    1, STRESS PERIOD 342
  ---------------------------------------------------------------------------------------------------

     CUMULATIVE VOLUME      L**3       RATES FOR THIS TIME STEP      L**3/T          PACKAGE NAME    
     ------------------                 ------------------------                     ----------------

           IN:                                      IN:
           ---                                      ---
              STO-SS =      291402.4351                STO-SS =          12.4083     STORAGE                          
                 WEL =      288810.3895                   WEL =         665.3825     RIV_CORR                         
                 DRN =           0.0000                   DRN =           0.0000     DRN_SYS1                         
                 RIV =      281281.0294                   RIV =         330.7729     RIV_SYS1                         
                 RIV =           0.0000                   RIV =           0.0000     RIV_SYS2                         
                 RCH =      533790.0828                   RCH =        5352.9621     RCH_MSW                          

            TOTAL IN =     1395283.9368              TOTAL IN =        6361.5259

          OUT:                                     OUT:
          ----                                     ----
              STO-SS =      221443.5658                STO-SS =        2860.9478     STORAGE                          
                 WEL =      357821.0788                   WEL =         848.9662     RIV_CORR                         
                 DRN =       88055.6208                   DRN =         256.8808     DRN_SYS1                         
                 RIV =      348514.3710                   RIV =        1706.9359     RIV_SYS1                         
                 RIV =      237132.2791                   RIV =         687.7774     RIV_SYS2                         
                 RCH =      142321.0028                   RCH =           0.0000     RCH_MSW                          

           TOTAL OUT =     1395287.9184             TOTAL OUT =        6361.5080

            IN - OUT =          -3.9816              IN - OUT =       1.7907E-02

 PERCENT DISCREPANCY =          -0.00     PERCENT DISCREPANCY =           0.00




         TIME SUMMARY AT END OF TIME STEP    1 IN STRESS PERIOD  342
                    SECONDS     MINUTES      HOURS       DAYS        YEARS
                    -----------------------------------------------------------
   TIME STEP LENGTH  86400.      1440.0      24.000      1.0000     2.73785E-03
 STRESS PERIOD TIME  86400.      1440.0      24.000      1.0000     2.73785E-03
         TOTAL TIME 2.95488E+07 4.92480E+05  8208.0      342.00     0.93634    


end timestep


start timestep kper="343" kstp="1" mode="normal"

 #Stressperiod Save Options

 BEGIN READING OUTPUT CONTROL FOR STRESS PERIOD 343
      ALL TIME STEPS WILL BE SAVED
      ALL TIME STEPS WILL BE SAVED

 END READING OUTPUT CONTROL FOR STRESS PERIOD 343


 PROCESSING STORAGE PERIOD DATA
 END PROCESSING STORAGE PERIOD DATA


 STRESS PERIOD 343 IS TRANSIENT


 REUSING WELS FROM LAST STRESS PERIOD

 REUSING DRNS FROM LAST STRESS PERIOD

 REUSING RIVS FROM LAST STRESS PERIOD

 REUSING RIVS FROM LAST STRESS PERIOD

 REUSING RCHS FROM LAST STRESS PERIOD
 UBDSV06 SAVING              DRN IN MODEL GWF_1            PACKAGE GWF_1           CONNECTED TO MODEL GWF_1            PACKAGE DRN_SYS1         ON UNIT   1019 AT TIME STEP      1, STRESS PERIOD    343
 UBDSV06 SAVING              RIV IN MODEL GWF_1            PACKAGE GWF_1           CONNECTED TO MODEL GWF_1            PACKAGE RIV_SYS1         ON UNIT   1019 AT TIME STEP      1, STRESS PERIOD    343
 UBDSV06 SAVING              RIV IN MODEL GWF_1            PACKAGE GWF_1           CONNECTED TO MODEL GWF_1            PACKAGE RIV_SYS2         ON UNIT   1019 AT TIME STEP      1, STRESS PERIOD    343

 HEAD WILL BE SAVED ON UNIT 1018 AT END OF TIME STEP    1, STRESS PERIOD  343


  VOLUME BUDGET FOR ENTIRE MODEL AT END OF TIME STEP    1, STRESS PERIOD 343
  ---------------------------------------------------------------------------------------------------

     CUMULATIVE VOLUME      L**3       RATES FOR THIS TIME STEP      L**3/T          PACKAGE NAME    
     ------------------                 ------------------------                     ----------------

           IN:                                      IN:
           ---                                      ---
              STO-SS =      292073.2851                STO-SS =         670.8500     STORAGE                          
                 WEL =      289141.1624                   WEL =         330.7729     RIV_CORR                         
                 DRN =           0.0000                   DRN =           0.0000     DRN_SYS1                         
                 RIV =      281913.2549                   RIV =         632.2255     RIV_SYS1                         
                 RIV =           0.0000                   RIV =           0.0000     RIV_SYS2                         
                 RCH =      537127.5280                   RCH =        3337.4452     RCH_MSW                          

            TOTAL IN =     1400255.2304              TOTAL IN =        4971.2936

          OUT:                                     OUT:
          ----                                     ----
              STO-SS =      222609.8248                STO-SS =        1166.2590     STORAGE                          
                 WEL =      359528.0147                   WEL =        1706.9359     RIV_CORR                         
                 DRN =       88316.2797                   DRN =         260.6588     DRN_SYS1                         
                 RIV =      349496.8747                   RIV =         982.5037     RIV_SYS1                         
                 RIV =      237828.9374                   RIV =         696.6583     RIV_SYS2                         
                 RCH =      142479.2771                   RCH =         158.2743     RCH_MSW                          

           TOTAL OUT =     1400259.2084             TOTAL OUT =        4971.2900

            IN - OUT =          -3.9780              IN - OUT =       3.6275E-03

 PERCENT DISCREPANCY =          -0.00     PERCENT DISCREPANCY =           0.00




         TIME SUMMARY AT END OF TIME STEP    1 IN STRESS PERIOD  343
                    SECONDS     MINUTES      HOURS       DAYS        YEARS
                    -----------------------------------------------------------
   TIME STEP LENGTH  86400.      1440.0      24.000      1.0000     2.73785E-03
 STRESS PERIOD TIME  86400.      1440.0      24.000      1.0000     2.73785E-03
         TOTAL TIME 2.96352E+07 4.93920E+05  8232.0      343.00     0.93908    


end timestep


start timestep kper="344" kstp="1" mode="normal"

 #Stressperiod Save Options

 BEGIN READING OUTPUT CONTROL FOR STRESS PERIOD 344
      ALL TIME STEPS WILL BE SAVED
      ALL TIME STEPS WILL BE SAVED

 END READING OUTPUT CONTROL FOR STRESS PERIOD 344


 PROCESSING STORAGE PERIOD DATA
 END PROCESSING STORAGE PERIOD DATA


 STRESS PERIOD 344 IS TRANSIENT


 REUSING WELS FROM LAST STRESS PERIOD

 REUSING DRNS FROM LAST STRESS PERIOD

 REUSING RIVS FROM LAST STRESS PERIOD

 REUSING RIVS FROM LAST STRESS PERIOD

 REUSING RCHS FROM LAST STRESS PERIOD
 UBDSV06 SAVING              DRN IN MODEL GWF_1            PACKAGE GWF_1           CONNECTED TO MODEL GWF_1            PACKAGE DRN_SYS1         ON UNIT   1019 AT TIME STEP      1, STRESS PERIOD    344
 UBDSV06 SAVING              RIV IN MODEL GWF_1            PACKAGE GWF_1           CONNECTED TO MODEL GWF_1            PACKAGE RIV_SYS1         ON UNIT   1019 AT TIME STEP      1, STRESS PERIOD    344
 UBDSV06 SAVING              RIV IN MODEL GWF_1            PACKAGE GWF_1           CONNECTED TO MODEL GWF_1            PACKAGE RIV_SYS2         ON UNIT   1019 AT TIME STEP      1, STRESS PERIOD    344

 HEAD WILL BE SAVED ON UNIT 1018 AT END OF TIME STEP    1, STRESS PERIOD  344


  VOLUME BUDGET FOR ENTIRE MODEL AT END OF TIME STEP    1, STRESS PERIOD 344
  ---------------------------------------------------------------------------------------------------

     CUMULATIVE VOLUME      L**3       RATES FOR THIS TIME STEP      L**3/T          PACKAGE NAME    
     ------------------                 ------------------------                     ----------------

           IN:                                      IN:
           ---                                      ---
              STO-SS =      292081.7918                STO-SS =           8.5067     STORAGE                          
                 WEL =      289773.3879                   WEL =         632.2255     RIV_CORR                         
                 DRN =           0.0000                   DRN =           0.0000     DRN_SYS1                         
                 RIV =      282355.9213                   RIV =         442.6664     RIV_SYS1                         
                 RIV =           0.0000                   RIV =           0.0000     RIV_SYS2                         
                 RCH =      540272.6180                   RCH =        3145.0900     RCH_MSW                          

            TOTAL IN =     1404483.7190              TOTAL IN =        4228.4886

          OUT:                                     OUT:
          ----                                     ----
              STO-SS =      223668.8041                STO-SS =        1058.9792     STORAGE                          
                 WEL =      360510.5184                   WEL =         982.5037     RIV_CORR                         
                 DRN =       88579.5927                   DRN =         263.3130     DRN_SYS1                         
                 RIV =      350717.0530                   RIV =        1220.1783     RIV_SYS1                         
                 RIV =      238532.4483                   RIV =         703.5109     RIV_SYS2                         
                 RCH =      142479.2771                   RCH =           0.0000     RCH_MSW                          

           TOTAL OUT =     1404487.6936             TOTAL OUT =        4228.4852

            IN - OUT =          -3.9746              IN - OUT =       3.4002E-03

 PERCENT DISCREPANCY =          -0.00     PERCENT DISCREPANCY =           0.00




         TIME SUMMARY AT END OF TIME STEP    1 IN STRESS PERIOD  344
                    SECONDS     MINUTES      HOURS       DAYS        YEARS
                    -----------------------------------------------------------
   TIME STEP LENGTH  86400.      1440.0      24.000      1.0000     2.73785E-03
 STRESS PERIOD TIME  86400.      1440.0      24.000      1.0000     2.73785E-03
         TOTAL TIME 2.97216E+07 4.95360E+05  8256.0      344.00     0.94182    


end timestep


start timestep kper="345" kstp="1" mode="normal"

 #Stressperiod Save Options

 BEGIN READING OUTPUT CONTROL FOR STRESS PERIOD 345
      ALL TIME STEPS WILL BE SAVED
      ALL TIME STEPS WILL BE SAVED

 END READING OUTPUT CONTROL FOR STRESS PERIOD 345


 PROCESSING STORAGE PERIOD DATA
 END PROCESSING STORAGE PERIOD DATA


 STRESS PERIOD 345 IS TRANSIENT


 REUSING WELS FROM LAST STRESS PERIOD

 REUSING DRNS FROM LAST STRESS PERIOD

 REUSING RIVS FROM LAST STRESS PERIOD

 REUSING RIVS FROM LAST STRESS PERIOD

 REUSING RCHS FROM LAST STRESS PERIOD
 UBDSV06 SAVING              DRN IN MODEL GWF_1            PACKAGE GWF_1           CONNECTED TO MODEL GWF_1            PACKAGE DRN_SYS1         ON UNIT   1019 AT TIME STEP      1, STRESS PERIOD    345
 UBDSV06 SAVING              RIV IN MODEL GWF_1            PACKAGE GWF_1           CONNECTED TO MODEL GWF_1            PACKAGE RIV_SYS1         ON UNIT   1019 AT TIME STEP      1, STRESS PERIOD    345
 UBDSV06 SAVING              RIV IN MODEL GWF_1            PACKAGE GWF_1           CONNECTED TO MODEL GWF_1            PACKAGE RIV_SYS2         ON UNIT   1019 AT TIME STEP      1, STRESS PERIOD    345

 HEAD WILL BE SAVED ON UNIT 1018 AT END OF TIME STEP    1, STRESS PERIOD  345


  VOLUME BUDGET FOR ENTIRE MODEL AT END OF TIME STEP    1, STRESS PERIOD 345
  ---------------------------------------------------------------------------------------------------

     CUMULATIVE VOLUME      L**3       RATES FOR THIS TIME STEP      L**3/T          PACKAGE NAME    
     ------------------                 ------------------------                     ----------------

           IN:                                      IN:
           ---                                      ---
              STO-SS =      292563.8470                STO-SS =         482.0551     STORAGE                          
                 WEL =      290216.0543                   WEL =         442.6664     RIV_CORR                         
                 DRN =           0.0000                   DRN =           0.0000     DRN_SYS1                         
                 RIV =      283003.1699                   RIV =         647.2486     RIV_SYS1                         
                 RIV =           0.0000                   RIV =           0.0000     RIV_SYS2                         
                 RCH =      542346.4946                   RCH =        2073.8766     RCH_MSW                          

            TOTAL IN =     1408129.5657              TOTAL IN =        3645.8467

          OUT:                                     OUT:
          ----                                     ----
              STO-SS =      224173.7321                STO-SS =         504.9280     STORAGE                          
                 WEL =      361730.6967                   WEL =        1220.1783     RIV_CORR                         
                 DRN =       88843.7118                   DRN =         264.1191     DRN_SYS1                         
                 RIV =      351665.7752                   RIV =         948.7222     RIV_SYS1                         
                 RIV =      239238.5585                   RIV =         706.1102     RIV_SYS2                         
                 RCH =      142481.2429                   RCH =           1.9659     RCH_MSW                          

           TOTAL OUT =     1408133.7172             TOTAL OUT =        3646.0236

            IN - OUT =          -4.1514              IN - OUT =          -0.1769

 PERCENT DISCREPANCY =          -0.00     PERCENT DISCREPANCY =          -0.00




         TIME SUMMARY AT END OF TIME STEP    1 IN STRESS PERIOD  345
                    SECONDS     MINUTES      HOURS       DAYS        YEARS
                    -----------------------------------------------------------
   TIME STEP LENGTH  86400.      1440.0      24.000      1.0000     2.73785E-03
 STRESS PERIOD TIME  86400.      1440.0      24.000      1.0000     2.73785E-03
         TOTAL TIME 2.98080E+07 4.96800E+05  8280.0      345.00     0.94456    


end timestep


start timestep kper="346" kstp="1" mode="normal"

 #Stressperiod Save Options

 BEGIN READING OUTPUT CONTROL FOR STRESS PERIOD 346
      ALL TIME STEPS WILL BE SAVED
      ALL TIME STEPS WILL BE SAVED

 END READING OUTPUT CONTROL FOR STRESS PERIOD 346


 PROCESSING STORAGE PERIOD DATA
 END PROCESSING STORAGE PERIOD DATA


 STRESS PERIOD 346 IS TRANSIENT


 REUSING WELS FROM LAST STRESS PERIOD

 REUSING DRNS FROM LAST STRESS PERIOD

 REUSING RIVS FROM LAST STRESS PERIOD

 REUSING RIVS FROM LAST STRESS PERIOD

 REUSING RCHS FROM LAST STRESS PERIOD
 UBDSV06 SAVING              DRN IN MODEL GWF_1            PACKAGE GWF_1           CONNECTED TO MODEL GWF_1            PACKAGE DRN_SYS1         ON UNIT   1019 AT TIME STEP      1, STRESS PERIOD    346
 UBDSV06 SAVING              RIV IN MODEL GWF_1            PACKAGE GWF_1           CONNECTED TO MODEL GWF_1            PACKAGE RIV_SYS1         ON UNIT   1019 AT TIME STEP      1, STRESS PERIOD    346
 UBDSV06 SAVING              RIV IN MODEL GWF_1            PACKAGE GWF_1           CONNECTED TO MODEL GWF_1            PACKAGE RIV_SYS2         ON UNIT   1019 AT TIME STEP      1, STRESS PERIOD    346

 HEAD WILL BE SAVED ON UNIT 1018 AT END OF TIME STEP    1, STRESS PERIOD  346


  VOLUME BUDGET FOR ENTIRE MODEL AT END OF TIME STEP    1, STRESS PERIOD 346
  ---------------------------------------------------------------------------------------------------

     CUMULATIVE VOLUME      L**3       RATES FOR THIS TIME STEP      L**3/T          PACKAGE NAME    
     ------------------                 ------------------------                     ----------------

           IN:                                      IN:
           ---                                      ---
              STO-SS =      292895.3632                STO-SS =         331.5162     STORAGE                          
                 WEL =      290863.3029                   WEL =         647.2486     RIV_CORR                         
                 DRN =           0.0000                   DRN =           0.0000     DRN_SYS1                         
                 RIV =      283566.3026                   RIV =         563.1328     RIV_SYS1                         
                 RIV =           0.0000                   RIV =           0.0000     RIV_SYS2                         
                 RCH =      543963.0380                   RCH =        1616.5434     RCH_MSW                          

            TOTAL IN =     1411288.0066              TOTAL IN =        3158.4409

          OUT:                                     OUT:
          ----                                     ----
              STO-SS =      224447.3131                STO-SS =         273.5810     STORAGE                          
                 WEL =      362679.4188                   WEL =         948.7222     RIV_CORR                         
                 DRN =       89107.5742                   DRN =         263.8624     DRN_SYS1                         
                 RIV =      352623.2768                   RIV =         957.5016     RIV_SYS1                         
                 RIV =      239944.5699                   RIV =         706.0113     RIV_SYS2                         
                 RCH =      142490.0170                   RCH =           8.7741     RCH_MSW                          

           TOTAL OUT =     1411292.1697             TOTAL OUT =        3158.4526

            IN - OUT =          -4.1631              IN - OUT =      -1.1663E-02

 PERCENT DISCREPANCY =          -0.00     PERCENT DISCREPANCY =          -0.00




         TIME SUMMARY AT END OF TIME STEP    1 IN STRESS PERIOD  346
                    SECONDS     MINUTES      HOURS       DAYS        YEARS
                    -----------------------------------------------------------
   TIME STEP LENGTH  86400.      1440.0      24.000      1.0000     2.73785E-03
 STRESS PERIOD TIME  86400.      1440.0      24.000      1.0000     2.73785E-03
         TOTAL TIME 2.98944E+07 4.98240E+05  8304.0      346.00     0.94730    


end timestep


start timestep kper="347" kstp="1" mode="normal"

 #Stressperiod Save Options

 BEGIN READING OUTPUT CONTROL FOR STRESS PERIOD 347
      ALL TIME STEPS WILL BE SAVED
      ALL TIME STEPS WILL BE SAVED

 END READING OUTPUT CONTROL FOR STRESS PERIOD 347


 PROCESSING STORAGE PERIOD DATA
 END PROCESSING STORAGE PERIOD DATA


 STRESS PERIOD 347 IS TRANSIENT


 REUSING WELS FROM LAST STRESS PERIOD

 REUSING DRNS FROM LAST STRESS PERIOD

 REUSING RIVS FROM LAST STRESS PERIOD

 REUSING RIVS FROM LAST STRESS PERIOD

 REUSING RCHS FROM LAST STRESS PERIOD
 UBDSV06 SAVING              DRN IN MODEL GWF_1            PACKAGE GWF_1           CONNECTED TO MODEL GWF_1            PACKAGE DRN_SYS1         ON UNIT   1019 AT TIME STEP      1, STRESS PERIOD    347
 UBDSV06 SAVING              RIV IN MODEL GWF_1            PACKAGE GWF_1           CONNECTED TO MODEL GWF_1            PACKAGE RIV_SYS1         ON UNIT   1019 AT TIME STEP      1, STRESS PERIOD    347
 UBDSV06 SAVING              RIV IN MODEL GWF_1            PACKAGE GWF_1           CONNECTED TO MODEL GWF_1            PACKAGE RIV_SYS2         ON UNIT   1019 AT TIME STEP      1, STRESS PERIOD    347

 HEAD WILL BE SAVED ON UNIT 1018 AT END OF TIME STEP    1, STRESS PERIOD  347


  VOLUME BUDGET FOR ENTIRE MODEL AT END OF TIME STEP    1, STRESS PERIOD 347
  ---------------------------------------------------------------------------------------------------

     CUMULATIVE VOLUME      L**3       RATES FOR THIS TIME STEP      L**3/T          PACKAGE NAME    
     ------------------                 ------------------------                     ----------------

           IN:                                      IN:
           ---                                      ---
              STO-SS =      292895.3632                STO-SS =           0.0000     STORAGE                          
                 WEL =      291426.4357                   WEL =         563.1328     RIV_CORR                         
                 DRN =           0.0000                   DRN =           0.0000     DRN_SYS1                         
                 RIV =      283926.3396                   RIV =         360.0370     RIV_SYS1                         
                 RIV =           0.0000                   RIV =           0.0000     RIV_SYS2                         
                 RCH =      548334.3079                   RCH =        4371.2699     RCH_MSW                          

            TOTAL IN =     1416582.4463              TOTAL IN =        5294.4397

          OUT:                                     OUT:
          ----                                     ----
              STO-SS =      226283.8382                STO-SS =        1836.5251     STORAGE                          
                 WEL =      363636.9205                   WEL =         957.5016     RIV_CORR                         
                 DRN =       89373.9663                   DRN =         266.3921     DRN_SYS1                         
                 RIV =      354145.1393                   RIV =        1521.8625     RIV_SYS1                         
                 RIV =      240656.7091                   RIV =         712.1393     RIV_SYS2                         
                 RCH =      142490.0170                   RCH =           0.0000     RCH_MSW                          

           TOTAL OUT =     1416586.5903             TOTAL OUT =        5294.4206

            IN - OUT =          -4.1440              IN - OUT =       1.9110E-02

 PERCENT DISCREPANCY =          -0.00     PERCENT DISCREPANCY =           0.00




         TIME SUMMARY AT END OF TIME STEP    1 IN STRESS PERIOD  347
                    SECONDS     MINUTES      HOURS       DAYS        YEARS
                    -----------------------------------------------------------
   TIME STEP LENGTH  86400.      1440.0      24.000      1.0000     2.73785E-03
 STRESS PERIOD TIME  86400.      1440.0      24.000      1.0000     2.73785E-03
         TOTAL TIME 2.99808E+07 4.99680E+05  8328.0      347.00     0.95003    


end timestep


start timestep kper="348" kstp="1" mode="normal"

 #Stressperiod Save Options

 BEGIN READING OUTPUT CONTROL FOR STRESS PERIOD 348
      ALL TIME STEPS WILL BE SAVED
      ALL TIME STEPS WILL BE SAVED

 END READING OUTPUT CONTROL FOR STRESS PERIOD 348


 PROCESSING STORAGE PERIOD DATA
 END PROCESSING STORAGE PERIOD DATA


 STRESS PERIOD 348 IS TRANSIENT


 REUSING WELS FROM LAST STRESS PERIOD

 REUSING DRNS FROM LAST STRESS PERIOD

 REUSING RIVS FROM LAST STRESS PERIOD

 REUSING RIVS FROM LAST STRESS PERIOD

 REUSING RCHS FROM LAST STRESS PERIOD
 UBDSV06 SAVING              DRN IN MODEL GWF_1            PACKAGE GWF_1           CONNECTED TO MODEL GWF_1            PACKAGE DRN_SYS1         ON UNIT   1019 AT TIME STEP      1, STRESS PERIOD    348
 UBDSV06 SAVING              RIV IN MODEL GWF_1            PACKAGE GWF_1           CONNECTED TO MODEL GWF_1            PACKAGE RIV_SYS1         ON UNIT   1019 AT TIME STEP      1, STRESS PERIOD    348
 UBDSV06 SAVING              RIV IN MODEL GWF_1            PACKAGE GWF_1           CONNECTED TO MODEL GWF_1            PACKAGE RIV_SYS2         ON UNIT   1019 AT TIME STEP      1, STRESS PERIOD    348

 HEAD WILL BE SAVED ON UNIT 1018 AT END OF TIME STEP    1, STRESS PERIOD  348


  VOLUME BUDGET FOR ENTIRE MODEL AT END OF TIME STEP    1, STRESS PERIOD 348
  ---------------------------------------------------------------------------------------------------

     CUMULATIVE VOLUME      L**3       RATES FOR THIS TIME STEP      L**3/T          PACKAGE NAME    
     ------------------                 ------------------------                     ----------------

           IN:                                      IN:
           ---                                      ---
              STO-SS =      293410.2460                STO-SS =         514.8828     STORAGE                          
                 WEL =      291786.4726                   WEL =         360.0370     RIV_CORR                         
                 DRN =           0.0000                   DRN =           0.0000     DRN_SYS1                         
                 RIV =      284620.5548                   RIV =         694.2152     RIV_SYS1                         
                 RIV =           0.0000                   RIV =           0.0000     RIV_SYS2                         
                 RCH =      550830.9313                   RCH =        2496.6234     RCH_MSW                          

            TOTAL IN =     1420648.2048              TOTAL IN =        4065.7585

          OUT:                                     OUT:
          ----                                     ----
              STO-SS =      226850.5615                STO-SS =         566.7233     STORAGE                          
                 WEL =      365158.7830                   WEL =        1521.8625     RIV_CORR                         
                 DRN =       89641.7019                   DRN =         267.7357     DRN_SYS1                         
                 RIV =      355138.8460                   RIV =         993.7067     RIV_SYS1                         
                 RIV =      241372.4645                   RIV =         715.7554     RIV_SYS2                         
                 RCH =      142490.0170                   RCH =           0.0000     RCH_MSW                          

           TOTAL OUT =     1420652.3739             TOTAL OUT =        4065.7835

            IN - OUT =          -4.1691              IN - OUT =      -2.5071E-02

 PERCENT DISCREPANCY =          -0.00     PERCENT DISCREPANCY =          -0.00




         TIME SUMMARY AT END OF TIME STEP    1 IN STRESS PERIOD  348
                    SECONDS     MINUTES      HOURS       DAYS        YEARS
                    -----------------------------------------------------------
   TIME STEP LENGTH  86400.      1440.0      24.000      1.0000     2.73785E-03
 STRESS PERIOD TIME  86400.      1440.0      24.000      1.0000     2.73785E-03
         TOTAL TIME 3.00672E+07 5.01120E+05  8352.0      348.00     0.95277    


end timestep


start timestep kper="349" kstp="1" mode="normal"

 #Stressperiod Save Options

 BEGIN READING OUTPUT CONTROL FOR STRESS PERIOD 349
      ALL TIME STEPS WILL BE SAVED
      ALL TIME STEPS WILL BE SAVED

 END READING OUTPUT CONTROL FOR STRESS PERIOD 349


 PROCESSING STORAGE PERIOD DATA
 END PROCESSING STORAGE PERIOD DATA


 STRESS PERIOD 349 IS TRANSIENT


 REUSING WELS FROM LAST STRESS PERIOD

 REUSING DRNS FROM LAST STRESS PERIOD

 REUSING RIVS FROM LAST STRESS PERIOD

 REUSING RIVS FROM LAST STRESS PERIOD

 REUSING RCHS FROM LAST STRESS PERIOD
 UBDSV06 SAVING              DRN IN MODEL GWF_1            PACKAGE GWF_1           CONNECTED TO MODEL GWF_1            PACKAGE DRN_SYS1         ON UNIT   1019 AT TIME STEP      1, STRESS PERIOD    349
 UBDSV06 SAVING              RIV IN MODEL GWF_1            PACKAGE GWF_1           CONNECTED TO MODEL GWF_1            PACKAGE RIV_SYS1         ON UNIT   1019 AT TIME STEP      1, STRESS PERIOD    349
 UBDSV06 SAVING              RIV IN MODEL GWF_1            PACKAGE GWF_1           CONNECTED TO MODEL GWF_1            PACKAGE RIV_SYS2         ON UNIT   1019 AT TIME STEP      1, STRESS PERIOD    349

 HEAD WILL BE SAVED ON UNIT 1018 AT END OF TIME STEP    1, STRESS PERIOD  349


  VOLUME BUDGET FOR ENTIRE MODEL AT END OF TIME STEP    1, STRESS PERIOD 349
  ---------------------------------------------------------------------------------------------------

     CUMULATIVE VOLUME      L**3       RATES FOR THIS TIME STEP      L**3/T          PACKAGE NAME    
     ------------------                 ------------------------                     ----------------

           IN:                                      IN:
           ---                                      ---
              STO-SS =      293627.9465                STO-SS =         217.7005     STORAGE                          
                 WEL =      292480.6879                   WEL =         694.2152     RIV_CORR                         
                 DRN =           0.0000                   DRN =           0.0000     DRN_SYS1                         
                 RIV =      285126.6867                   RIV =         506.1318     RIV_SYS1                         
                 RIV =           0.0000                   RIV =           0.0000     RIV_SYS2                         
                 RCH =      552771.6242                   RCH =        1940.6929     RCH_MSW                          

            TOTAL IN =     1424006.9453              TOTAL IN =        3358.7404

          OUT:                                     OUT:
          ----                                     ----
              STO-SS =      227175.1238                STO-SS =         324.5623     STORAGE                          
                 WEL =      366152.4896                   WEL =         993.7067     RIV_CORR                         
                 DRN =       89909.5894                   DRN =         267.8875     DRN_SYS1                         
                 RIV =      356194.4117                   RIV =        1055.5657     RIV_SYS1                         
                 RIV =      242089.0428                   RIV =         716.5783     RIV_SYS2                         
                 RCH =      142490.4298                   RCH =           0.4128     RCH_MSW                          

           TOTAL OUT =     1424011.0871             TOTAL OUT =        3358.7132

            IN - OUT =          -4.1418              IN - OUT =       2.7254E-02

 PERCENT DISCREPANCY =          -0.00     PERCENT DISCREPANCY =           0.00




         TIME SUMMARY AT END OF TIME STEP    1 IN STRESS PERIOD  349
                    SECONDS     MINUTES      HOURS       DAYS        YEARS
                    -----------------------------------------------------------
   TIME STEP LENGTH  86400.      1440.0      24.000      1.0000     2.73785E-03
 STRESS PERIOD TIME  86400.      1440.0      24.000      1.0000     2.73785E-03
         TOTAL TIME 3.01536E+07 5.02560E+05  8376.0      349.00     0.95551    


end timestep


start timestep kper="350" kstp="1" mode="normal"

 #Stressperiod Save Options

 BEGIN READING OUTPUT CONTROL FOR STRESS PERIOD 350
      ALL TIME STEPS WILL BE SAVED
      ALL TIME STEPS WILL BE SAVED

 END READING OUTPUT CONTROL FOR STRESS PERIOD 350


 PROCESSING STORAGE PERIOD DATA
 END PROCESSING STORAGE PERIOD DATA


 STRESS PERIOD 350 IS TRANSIENT


 REUSING WELS FROM LAST STRESS PERIOD

 REUSING DRNS FROM LAST STRESS PERIOD

 REUSING RIVS FROM LAST STRESS PERIOD

 REUSING RIVS FROM LAST STRESS PERIOD

 REUSING RCHS FROM LAST STRESS PERIOD
 UBDSV06 SAVING              DRN IN MODEL GWF_1            PACKAGE GWF_1           CONNECTED TO MODEL GWF_1            PACKAGE DRN_SYS1         ON UNIT   1019 AT TIME STEP      1, STRESS PERIOD    350
 UBDSV06 SAVING              RIV IN MODEL GWF_1            PACKAGE GWF_1           CONNECTED TO MODEL GWF_1            PACKAGE RIV_SYS1         ON UNIT   1019 AT TIME STEP      1, STRESS PERIOD    350
 UBDSV06 SAVING              RIV IN MODEL GWF_1            PACKAGE GWF_1           CONNECTED TO MODEL GWF_1            PACKAGE RIV_SYS2         ON UNIT   1019 AT TIME STEP      1, STRESS PERIOD    350

 HEAD WILL BE SAVED ON UNIT 1018 AT END OF TIME STEP    1, STRESS PERIOD  350


  VOLUME BUDGET FOR ENTIRE MODEL AT END OF TIME STEP    1, STRESS PERIOD 350
  ---------------------------------------------------------------------------------------------------

     CUMULATIVE VOLUME      L**3       RATES FOR THIS TIME STEP      L**3/T          PACKAGE NAME    
     ------------------                 ------------------------                     ----------------

           IN:                                      IN:
           ---                                      ---
              STO-SS =      294055.2957                STO-SS =         427.3492     STORAGE                          
                 WEL =      292986.8197                   WEL =         506.1318     RIV_CORR                         
                 DRN =           0.0000                   DRN =           0.0000     DRN_SYS1                         
                 RIV =      285739.5435                   RIV =         612.8568     RIV_SYS1                         
                 RIV =           0.0000                   RIV =           0.0000     RIV_SYS2                         
                 RCH =      554316.7100                   RCH =        1545.0858     RCH_MSW                          

            TOTAL IN =     1427098.3689              TOTAL IN =        3091.4236

          OUT:                                     OUT:
          ----                                     ----
              STO-SS =      227284.5915                STO-SS =         109.4677     STORAGE                          
                 WEL =      367208.0553                   WEL =        1055.5657     RIV_CORR                         
                 DRN =       90176.8894                   DRN =         267.3000     DRN_SYS1                         
                 RIV =      357137.2539                   RIV =         942.8422     RIV_SYS1                         
                 RIV =      242804.5049                   RIV =         715.4621     RIV_SYS2                         
                 RCH =      142491.1951                   RCH =           0.7653     RCH_MSW                          

           TOTAL OUT =     1427102.4900             TOTAL OUT =        3091.4030

            IN - OUT =          -4.1212              IN - OUT =       2.0634E-02

 PERCENT DISCREPANCY =          -0.00     PERCENT DISCREPANCY =           0.00




         TIME SUMMARY AT END OF TIME STEP    1 IN STRESS PERIOD  350
                    SECONDS     MINUTES      HOURS       DAYS        YEARS
                    -----------------------------------------------------------
   TIME STEP LENGTH  86400.      1440.0      24.000      1.0000     2.73785E-03
 STRESS PERIOD TIME  86400.      1440.0      24.000      1.0000     2.73785E-03
         TOTAL TIME 3.02400E+07 5.04000E+05  8400.0      350.00     0.95825    


end timestep


start timestep kper="351" kstp="1" mode="normal"

 #Stressperiod Save Options

 BEGIN READING OUTPUT CONTROL FOR STRESS PERIOD 351
      ALL TIME STEPS WILL BE SAVED
      ALL TIME STEPS WILL BE SAVED

 END READING OUTPUT CONTROL FOR STRESS PERIOD 351


 PROCESSING STORAGE PERIOD DATA
 END PROCESSING STORAGE PERIOD DATA


 STRESS PERIOD 351 IS TRANSIENT


 REUSING WELS FROM LAST STRESS PERIOD

 REUSING DRNS FROM LAST STRESS PERIOD

 REUSING RIVS FROM LAST STRESS PERIOD

 REUSING RIVS FROM LAST STRESS PERIOD

 REUSING RCHS FROM LAST STRESS PERIOD
 UBDSV06 SAVING              DRN IN MODEL GWF_1            PACKAGE GWF_1           CONNECTED TO MODEL GWF_1            PACKAGE DRN_SYS1         ON UNIT   1019 AT TIME STEP      1, STRESS PERIOD    351
 UBDSV06 SAVING              RIV IN MODEL GWF_1            PACKAGE GWF_1           CONNECTED TO MODEL GWF_1            PACKAGE RIV_SYS1         ON UNIT   1019 AT TIME STEP      1, STRESS PERIOD    351
 UBDSV06 SAVING              RIV IN MODEL GWF_1            PACKAGE GWF_1           CONNECTED TO MODEL GWF_1            PACKAGE RIV_SYS2         ON UNIT   1019 AT TIME STEP      1, STRESS PERIOD    351

 HEAD WILL BE SAVED ON UNIT 1018 AT END OF TIME STEP    1, STRESS PERIOD  351


  VOLUME BUDGET FOR ENTIRE MODEL AT END OF TIME STEP    1, STRESS PERIOD 351
  ---------------------------------------------------------------------------------------------------

     CUMULATIVE VOLUME      L**3       RATES FOR THIS TIME STEP      L**3/T          PACKAGE NAME    
     ------------------                 ------------------------                     ----------------

           IN:                                      IN:
           ---                                      ---
              STO-SS =      294478.5112                STO-SS =         423.2156     STORAGE                          
                 WEL =      293599.6765                   WEL =         612.8568     RIV_CORR                         
                 DRN =           0.0000                   DRN =           0.0000     DRN_SYS1                         
                 RIV =      286319.1829                   RIV =         579.6394     RIV_SYS1                         
                 RIV =           0.0000                   RIV =           0.0000     RIV_SYS2                         
                 RCH =      555602.5232                   RCH =        1285.8132     RCH_MSW                          

            TOTAL IN =     1429999.8939              TOTAL IN =        2901.5250

          OUT:                                     OUT:
          ----                                     ----
              STO-SS =      227326.5040                STO-SS =          41.9126     STORAGE                          
                 WEL =      368150.8975                   WEL =         942.8422     RIV_CORR                         
                 DRN =       90443.2256                   DRN =         266.3362     DRN_SYS1                         
                 RIV =      358074.3751                   RIV =         937.1213     RIV_SYS1                         
                 RIV =      243517.7811                   RIV =         713.2763     RIV_SYS2                         
                 RCH =      142491.1951                   RCH =           0.0000     RCH_MSW                          

           TOTAL OUT =     1430003.9785             TOTAL OUT =        2901.4884

            IN - OUT =          -4.0846              IN - OUT =       3.6622E-02

 PERCENT DISCREPANCY =          -0.00     PERCENT DISCREPANCY =           0.00




         TIME SUMMARY AT END OF TIME STEP    1 IN STRESS PERIOD  351
                    SECONDS     MINUTES      HOURS       DAYS        YEARS
                    -----------------------------------------------------------
   TIME STEP LENGTH  86400.      1440.0      24.000      1.0000     2.73785E-03
 STRESS PERIOD TIME  86400.      1440.0      24.000      1.0000     2.73785E-03
         TOTAL TIME 3.03264E+07 5.05440E+05  8424.0      351.00     0.96099    


end timestep


start timestep kper="352" kstp="1" mode="normal"

 #Stressperiod Save Options

 BEGIN READING OUTPUT CONTROL FOR STRESS PERIOD 352
      ALL TIME STEPS WILL BE SAVED
      ALL TIME STEPS WILL BE SAVED

 END READING OUTPUT CONTROL FOR STRESS PERIOD 352


 PROCESSING STORAGE PERIOD DATA
 END PROCESSING STORAGE PERIOD DATA


 STRESS PERIOD 352 IS TRANSIENT


 REUSING WELS FROM LAST STRESS PERIOD

 REUSING DRNS FROM LAST STRESS PERIOD

 REUSING RIVS FROM LAST STRESS PERIOD

 REUSING RIVS FROM LAST STRESS PERIOD

 REUSING RCHS FROM LAST STRESS PERIOD
 UBDSV06 SAVING              DRN IN MODEL GWF_1            PACKAGE GWF_1           CONNECTED TO MODEL GWF_1            PACKAGE DRN_SYS1         ON UNIT   1019 AT TIME STEP      1, STRESS PERIOD    352
 UBDSV06 SAVING              RIV IN MODEL GWF_1            PACKAGE GWF_1           CONNECTED TO MODEL GWF_1            PACKAGE RIV_SYS1         ON UNIT   1019 AT TIME STEP      1, STRESS PERIOD    352
 UBDSV06 SAVING              RIV IN MODEL GWF_1            PACKAGE GWF_1           CONNECTED TO MODEL GWF_1            PACKAGE RIV_SYS2         ON UNIT   1019 AT TIME STEP      1, STRESS PERIOD    352

 HEAD WILL BE SAVED ON UNIT 1018 AT END OF TIME STEP    1, STRESS PERIOD  352


  VOLUME BUDGET FOR ENTIRE MODEL AT END OF TIME STEP    1, STRESS PERIOD 352
  ---------------------------------------------------------------------------------------------------

     CUMULATIVE VOLUME      L**3       RATES FOR THIS TIME STEP      L**3/T          PACKAGE NAME    
     ------------------                 ------------------------                     ----------------

           IN:                                      IN:
           ---                                      ---
              STO-SS =      294740.1812                STO-SS =         261.6699     STORAGE                          
                 WEL =      294179.3159                   WEL =         579.6394     RIV_CORR                         
                 DRN =           0.0000                   DRN =           0.0000     DRN_SYS1                         
                 RIV =      286849.9960                   RIV =         530.8131     RIV_SYS1                         
                 RIV =           0.0000                   RIV =           0.0000     RIV_SYS2                         
                 RCH =      557166.0389                   RCH =        1563.5157     RCH_MSW                          

            TOTAL IN =     1432935.5319              TOTAL IN =        2935.6380

          OUT:                                     OUT:
          ----                                     ----
              STO-SS =      227388.6413                STO-SS =          62.1373     STORAGE                          
                 WEL =      369088.0188                   WEL =         937.1213     RIV_CORR                         
                 DRN =       90708.7930                   DRN =         265.5674     DRN_SYS1                         
                 RIV =      359033.7086                   RIV =         959.3334     RIV_SYS1                         
                 RIV =      244229.2330                   RIV =         711.4518     RIV_SYS2                         
                 RCH =      142491.1951                   RCH =           0.0000     RCH_MSW                          

           TOTAL OUT =     1432939.5897             TOTAL OUT =        2935.6112

            IN - OUT =          -4.0578              IN - OUT =       2.6793E-02

 PERCENT DISCREPANCY =          -0.00     PERCENT DISCREPANCY =           0.00




         TIME SUMMARY AT END OF TIME STEP    1 IN STRESS PERIOD  352
                    SECONDS     MINUTES      HOURS       DAYS        YEARS
                    -----------------------------------------------------------
   TIME STEP LENGTH  86400.      1440.0      24.000      1.0000     2.73785E-03
 STRESS PERIOD TIME  86400.      1440.0      24.000      1.0000     2.73785E-03
         TOTAL TIME 3.04128E+07 5.06880E+05  8448.0      352.00     0.96372    


end timestep


start timestep kper="353" kstp="1" mode="normal"

 #Stressperiod Save Options

 BEGIN READING OUTPUT CONTROL FOR STRESS PERIOD 353
      ALL TIME STEPS WILL BE SAVED
      ALL TIME STEPS WILL BE SAVED

 END READING OUTPUT CONTROL FOR STRESS PERIOD 353


 PROCESSING STORAGE PERIOD DATA
 END PROCESSING STORAGE PERIOD DATA


 STRESS PERIOD 353 IS TRANSIENT


 REUSING WELS FROM LAST STRESS PERIOD

 REUSING DRNS FROM LAST STRESS PERIOD

 REUSING RIVS FROM LAST STRESS PERIOD

 REUSING RIVS FROM LAST STRESS PERIOD

 REUSING RCHS FROM LAST STRESS PERIOD
 UBDSV06 SAVING              DRN IN MODEL GWF_1            PACKAGE GWF_1           CONNECTED TO MODEL GWF_1            PACKAGE DRN_SYS1         ON UNIT   1019 AT TIME STEP      1, STRESS PERIOD    353
 UBDSV06 SAVING              RIV IN MODEL GWF_1            PACKAGE GWF_1           CONNECTED TO MODEL GWF_1            PACKAGE RIV_SYS1         ON UNIT   1019 AT TIME STEP      1, STRESS PERIOD    353
 UBDSV06 SAVING              RIV IN MODEL GWF_1            PACKAGE GWF_1           CONNECTED TO MODEL GWF_1            PACKAGE RIV_SYS2         ON UNIT   1019 AT TIME STEP      1, STRESS PERIOD    353

 HEAD WILL BE SAVED ON UNIT 1018 AT END OF TIME STEP    1, STRESS PERIOD  353


  VOLUME BUDGET FOR ENTIRE MODEL AT END OF TIME STEP    1, STRESS PERIOD 353
  ---------------------------------------------------------------------------------------------------

     CUMULATIVE VOLUME      L**3       RATES FOR THIS TIME STEP      L**3/T          PACKAGE NAME    
     ------------------                 ------------------------                     ----------------

           IN:                                      IN:
           ---                                      ---
              STO-SS =      295202.2364                STO-SS =         462.0552     STORAGE                          
                 WEL =      294710.1290                   WEL =         530.8131     RIV_CORR                         
                 DRN =           0.0000                   DRN =           0.0000     DRN_SYS1                         
                 RIV =      287481.7979                   RIV =         631.8019     RIV_SYS1                         
                 RIV =           0.0000                   RIV =           0.0000     RIV_SYS2                         
                 RCH =      558378.8946                   RCH =        1212.8558     RCH_MSW                          

            TOTAL IN =     1435773.0579              TOTAL IN =        2837.5260

          OUT:                                     OUT:
          ----                                     ----
              STO-SS =      227388.6413                STO-SS =           0.0000     STORAGE                          
                 WEL =      370047.3522                   WEL =         959.3334     RIV_CORR                         
                 DRN =       90973.4987                   DRN =         264.7057     DRN_SYS1                         
                 RIV =      359937.8994                   RIV =         904.1909     RIV_SYS1                         
                 RIV =      244938.5573                   RIV =         709.3243     RIV_SYS2                         
                 RCH =      142491.1951                   RCH =           0.0000     RCH_MSW                          

           TOTAL OUT =     1435777.1441             TOTAL OUT =        2837.5543

            IN - OUT =          -4.0861              IN - OUT =      -2.8368E-02

 PERCENT DISCREPANCY =          -0.00     PERCENT DISCREPANCY =          -0.00




         TIME SUMMARY AT END OF TIME STEP    1 IN STRESS PERIOD  353
                    SECONDS     MINUTES      HOURS       DAYS        YEARS
                    -----------------------------------------------------------
   TIME STEP LENGTH  86400.      1440.0      24.000      1.0000     2.73785E-03
 STRESS PERIOD TIME  86400.      1440.0      24.000      1.0000     2.73785E-03
         TOTAL TIME 3.04992E+07 5.08320E+05  8472.0      353.00     0.96646    


end timestep


start timestep kper="354" kstp="1" mode="normal"

 #Stressperiod Save Options

 BEGIN READING OUTPUT CONTROL FOR STRESS PERIOD 354
      ALL TIME STEPS WILL BE SAVED
      ALL TIME STEPS WILL BE SAVED

 END READING OUTPUT CONTROL FOR STRESS PERIOD 354


 PROCESSING STORAGE PERIOD DATA
 END PROCESSING STORAGE PERIOD DATA


 STRESS PERIOD 354 IS TRANSIENT


 REUSING WELS FROM LAST STRESS PERIOD

 REUSING DRNS FROM LAST STRESS PERIOD

 REUSING RIVS FROM LAST STRESS PERIOD

 REUSING RIVS FROM LAST STRESS PERIOD

 REUSING RCHS FROM LAST STRESS PERIOD
 UBDSV06 SAVING              DRN IN MODEL GWF_1            PACKAGE GWF_1           CONNECTED TO MODEL GWF_1            PACKAGE DRN_SYS1         ON UNIT   1019 AT TIME STEP      1, STRESS PERIOD    354
 UBDSV06 SAVING              RIV IN MODEL GWF_1            PACKAGE GWF_1           CONNECTED TO MODEL GWF_1            PACKAGE RIV_SYS1         ON UNIT   1019 AT TIME STEP      1, STRESS PERIOD    354
 UBDSV06 SAVING              RIV IN MODEL GWF_1            PACKAGE GWF_1           CONNECTED TO MODEL GWF_1            PACKAGE RIV_SYS2         ON UNIT   1019 AT TIME STEP      1, STRESS PERIOD    354

 HEAD WILL BE SAVED ON UNIT 1018 AT END OF TIME STEP    1, STRESS PERIOD  354


  VOLUME BUDGET FOR ENTIRE MODEL AT END OF TIME STEP    1, STRESS PERIOD 354
  ---------------------------------------------------------------------------------------------------

     CUMULATIVE VOLUME      L**3       RATES FOR THIS TIME STEP      L**3/T          PACKAGE NAME    
     ------------------                 ------------------------                     ----------------

           IN:                                      IN:
           ---                                      ---
              STO-SS =      295710.8322                STO-SS =         508.5958     STORAGE                          
                 WEL =      295341.9309                   WEL =         631.8019     RIV_CORR                         
                 DRN =           0.0000                   DRN =           0.0000     DRN_SYS1                         
                 RIV =      288109.1955                   RIV =         627.3976     RIV_SYS1                         
                 RIV =           0.0000                   RIV =           0.0000     RIV_SYS2                         
                 RCH =      559380.6525                   RCH =        1001.7579     RCH_MSW                          

            TOTAL IN =     1438542.6111              TOTAL IN =        2769.5532

          OUT:                                     OUT:
          ----                                     ----
              STO-SS =      227391.2008                STO-SS =           2.5595     STORAGE                          
                 WEL =      370951.5431                   WEL =         904.1909     RIV_CORR                         
                 DRN =       91237.1855                   DRN =         263.6867     DRN_SYS1                         
                 RIV =      360830.1774                   RIV =         892.2779     RIV_SYS1                         
                 RIV =      245645.3747                   RIV =         706.8174     RIV_SYS2                         
                 RCH =      142491.2333                   RCH =       3.8173E-02     RCH_MSW                          

           TOTAL OUT =     1438546.7146             TOTAL OUT =        2769.5706

            IN - OUT =          -4.1035              IN - OUT =      -1.7384E-02

 PERCENT DISCREPANCY =          -0.00     PERCENT DISCREPANCY =          -0.00




         TIME SUMMARY AT END OF TIME STEP    1 IN STRESS PERIOD  354
                    SECONDS     MINUTES      HOURS       DAYS        YEARS
                    -----------------------------------------------------------
   TIME STEP LENGTH  86400.      1440.0      24.000      1.0000     2.73785E-03
 STRESS PERIOD TIME  86400.      1440.0      24.000      1.0000     2.73785E-03
         TOTAL TIME 3.05856E+07 5.09760E+05  8496.0      354.00     0.96920    


end timestep


start timestep kper="355" kstp="1" mode="normal"

 #Stressperiod Save Options

 BEGIN READING OUTPUT CONTROL FOR STRESS PERIOD 355
      ALL TIME STEPS WILL BE SAVED
      ALL TIME STEPS WILL BE SAVED

 END READING OUTPUT CONTROL FOR STRESS PERIOD 355


 PROCESSING STORAGE PERIOD DATA
 END PROCESSING STORAGE PERIOD DATA


 STRESS PERIOD 355 IS TRANSIENT


 REUSING WELS FROM LAST STRESS PERIOD

 REUSING DRNS FROM LAST STRESS PERIOD

 REUSING RIVS FROM LAST STRESS PERIOD

 REUSING RIVS FROM LAST STRESS PERIOD

 REUSING RCHS FROM LAST STRESS PERIOD
 UBDSV06 SAVING              DRN IN MODEL GWF_1            PACKAGE GWF_1           CONNECTED TO MODEL GWF_1            PACKAGE DRN_SYS1         ON UNIT   1019 AT TIME STEP      1, STRESS PERIOD    355
 UBDSV06 SAVING              RIV IN MODEL GWF_1            PACKAGE GWF_1           CONNECTED TO MODEL GWF_1            PACKAGE RIV_SYS1         ON UNIT   1019 AT TIME STEP      1, STRESS PERIOD    355
 UBDSV06 SAVING              RIV IN MODEL GWF_1            PACKAGE GWF_1           CONNECTED TO MODEL GWF_1            PACKAGE RIV_SYS2         ON UNIT   1019 AT TIME STEP      1, STRESS PERIOD    355

 HEAD WILL BE SAVED ON UNIT 1018 AT END OF TIME STEP    1, STRESS PERIOD  355


  VOLUME BUDGET FOR ENTIRE MODEL AT END OF TIME STEP    1, STRESS PERIOD 355
  ---------------------------------------------------------------------------------------------------

     CUMULATIVE VOLUME      L**3       RATES FOR THIS TIME STEP      L**3/T          PACKAGE NAME    
     ------------------                 ------------------------                     ----------------

           IN:                                      IN:
           ---                                      ---
              STO-SS =      296140.0415                STO-SS =         429.2093     STORAGE                          
                 WEL =      295969.3285                   WEL =         627.3976     RIV_CORR                         
                 DRN =           0.0000                   DRN =           0.0000     DRN_SYS1                         
                 RIV =      288719.5958                   RIV =         610.4003     RIV_SYS1                         
                 RIV =           0.0000                   RIV =           0.0000     RIV_SYS2                         
                 RCH =      560475.2475                   RCH =        1094.5950     RCH_MSW                          

            TOTAL IN =     1441304.2133              TOTAL IN =        2761.6022

          OUT:                                     OUT:
          ----                                     ----
              STO-SS =      227401.2118                STO-SS =          10.0110     STORAGE                          
                 WEL =      371843.8210                   WEL =         892.2779     RIV_CORR                         
                 DRN =       91499.9135                   DRN =         262.7281     DRN_SYS1                         
                 RIV =      361722.3006                   RIV =         892.1232     RIV_SYS1                         
                 RIV =      246349.8421                   RIV =         704.4674     RIV_SYS2                         
                 RCH =      142491.2333                   RCH =           0.0000     RCH_MSW                          

           TOTAL OUT =     1441308.3223             TOTAL OUT =        2761.6077

            IN - OUT =          -4.1089              IN - OUT =      -5.4321E-03

 PERCENT DISCREPANCY =          -0.00     PERCENT DISCREPANCY =          -0.00




         TIME SUMMARY AT END OF TIME STEP    1 IN STRESS PERIOD  355
                    SECONDS     MINUTES      HOURS       DAYS        YEARS
                    -----------------------------------------------------------
   TIME STEP LENGTH  86400.      1440.0      24.000      1.0000     2.73785E-03
 STRESS PERIOD TIME  86400.      1440.0      24.000      1.0000     2.73785E-03
         TOTAL TIME 3.06720E+07 5.11200E+05  8520.0      355.00     0.97194    


end timestep


start timestep kper="356" kstp="1" mode="normal"

 #Stressperiod Save Options

 BEGIN READING OUTPUT CONTROL FOR STRESS PERIOD 356
      ALL TIME STEPS WILL BE SAVED
      ALL TIME STEPS WILL BE SAVED

 END READING OUTPUT CONTROL FOR STRESS PERIOD 356


 PROCESSING STORAGE PERIOD DATA
 END PROCESSING STORAGE PERIOD DATA


 STRESS PERIOD 356 IS TRANSIENT


 REUSING WELS FROM LAST STRESS PERIOD

 REUSING DRNS FROM LAST STRESS PERIOD

 REUSING RIVS FROM LAST STRESS PERIOD

 REUSING RIVS FROM LAST STRESS PERIOD

 REUSING RCHS FROM LAST STRESS PERIOD
 UBDSV06 SAVING              DRN IN MODEL GWF_1            PACKAGE GWF_1           CONNECTED TO MODEL GWF_1            PACKAGE DRN_SYS1         ON UNIT   1019 AT TIME STEP      1, STRESS PERIOD    356
 UBDSV06 SAVING              RIV IN MODEL GWF_1            PACKAGE GWF_1           CONNECTED TO MODEL GWF_1            PACKAGE RIV_SYS1         ON UNIT   1019 AT TIME STEP      1, STRESS PERIOD    356
 UBDSV06 SAVING              RIV IN MODEL GWF_1            PACKAGE GWF_1           CONNECTED TO MODEL GWF_1            PACKAGE RIV_SYS2         ON UNIT   1019 AT TIME STEP      1, STRESS PERIOD    356

 HEAD WILL BE SAVED ON UNIT 1018 AT END OF TIME STEP    1, STRESS PERIOD  356


  VOLUME BUDGET FOR ENTIRE MODEL AT END OF TIME STEP    1, STRESS PERIOD 356
  ---------------------------------------------------------------------------------------------------

     CUMULATIVE VOLUME      L**3       RATES FOR THIS TIME STEP      L**3/T          PACKAGE NAME    
     ------------------                 ------------------------                     ----------------

           IN:                                      IN:
           ---                                      ---
              STO-SS =      296740.4661                STO-SS =         600.4246     STORAGE                          
                 WEL =      296579.7288                   WEL =         610.4003     RIV_CORR                         
                 DRN =           0.0000                   DRN =           0.0000     DRN_SYS1                         
                 RIV =      289409.0141                   RIV =         689.4183     RIV_SYS1                         
                 RIV =           0.0000                   RIV =           0.0000     RIV_SYS2                         
                 RCH =      561298.8147                   RCH =         823.5671     RCH_MSW                          

            TOTAL IN =     1444028.0237              TOTAL IN =        2723.8104

          OUT:                                     OUT:
          ----                                     ----
              STO-SS =      227401.2118                STO-SS =           0.0000     STORAGE                          
                 WEL =      372735.9442                   WEL =         892.1232     RIV_CORR                         
                 DRN =       91761.5391                   DRN =         261.6255     DRN_SYS1                         
                 RIV =      362589.1499                   RIV =         866.8493     RIV_SYS1                         
                 RIV =      247051.5725                   RIV =         701.7304     RIV_SYS2                         
                 RCH =      142492.7260                   RCH =           1.4927     RCH_MSW                          

           TOTAL OUT =     1444032.1435             TOTAL OUT =        2723.8212

            IN - OUT =          -4.1198              IN - OUT =      -1.0819E-02

 PERCENT DISCREPANCY =          -0.00     PERCENT DISCREPANCY =          -0.00




         TIME SUMMARY AT END OF TIME STEP    1 IN STRESS PERIOD  356
                    SECONDS     MINUTES      HOURS       DAYS        YEARS
                    -----------------------------------------------------------
   TIME STEP LENGTH  86400.      1440.0      24.000      1.0000     2.73785E-03
 STRESS PERIOD TIME  86400.      1440.0      24.000      1.0000     2.73785E-03
         TOTAL TIME 3.07584E+07 5.12640E+05  8544.0      356.00     0.97467    


end timestep


start timestep kper="357" kstp="1" mode="normal"

 #Stressperiod Save Options

 BEGIN READING OUTPUT CONTROL FOR STRESS PERIOD 357
      ALL TIME STEPS WILL BE SAVED
      ALL TIME STEPS WILL BE SAVED

 END READING OUTPUT CONTROL FOR STRESS PERIOD 357


 PROCESSING STORAGE PERIOD DATA
 END PROCESSING STORAGE PERIOD DATA


 STRESS PERIOD 357 IS TRANSIENT


 REUSING WELS FROM LAST STRESS PERIOD

 REUSING DRNS FROM LAST STRESS PERIOD

 REUSING RIVS FROM LAST STRESS PERIOD

 REUSING RIVS FROM LAST STRESS PERIOD

 REUSING RCHS FROM LAST STRESS PERIOD
 UBDSV06 SAVING              DRN IN MODEL GWF_1            PACKAGE GWF_1           CONNECTED TO MODEL GWF_1            PACKAGE DRN_SYS1         ON UNIT   1019 AT TIME STEP      1, STRESS PERIOD    357
 UBDSV06 SAVING              RIV IN MODEL GWF_1            PACKAGE GWF_1           CONNECTED TO MODEL GWF_1            PACKAGE RIV_SYS1         ON UNIT   1019 AT TIME STEP      1, STRESS PERIOD    357
 UBDSV06 SAVING              RIV IN MODEL GWF_1            PACKAGE GWF_1           CONNECTED TO MODEL GWF_1            PACKAGE RIV_SYS2         ON UNIT   1019 AT TIME STEP      1, STRESS PERIOD    357

 HEAD WILL BE SAVED ON UNIT 1018 AT END OF TIME STEP    1, STRESS PERIOD  357


  VOLUME BUDGET FOR ENTIRE MODEL AT END OF TIME STEP    1, STRESS PERIOD 357
  ---------------------------------------------------------------------------------------------------

     CUMULATIVE VOLUME      L**3       RATES FOR THIS TIME STEP      L**3/T          PACKAGE NAME    
     ------------------                 ------------------------                     ----------------

           IN:                                      IN:
           ---                                      ---
              STO-SS =      297337.5190                STO-SS =         597.0529     STORAGE                          
                 WEL =      297269.1471                   WEL =         689.4183     RIV_CORR                         
                 DRN =           0.0000                   DRN =           0.0000     DRN_SYS1                         
                 RIV =      290095.1015                   RIV =         686.0874     RIV_SYS1                         
                 RIV =           0.0000                   RIV =           0.0000     RIV_SYS2                         
                 RCH =      562011.1285                   RCH =         712.3139     RCH_MSW                          

            TOTAL IN =     1446712.8961              TOTAL IN =        2684.8724

          OUT:                                     OUT:
          ----                                     ----
              STO-SS =      227403.3126                STO-SS =           2.1008     STORAGE                          
                 WEL =      373602.7936                   WEL =         866.8493     RIV_CORR                         
                 DRN =       92021.9860                   DRN =         260.4470     DRN_SYS1                         
                 RIV =      363444.2956                   RIV =         855.1457     RIV_SYS1                         
                 RIV =      247750.3831                   RIV =         698.8106     RIV_SYS2                         
                 RCH =      142494.2905                   RCH =           1.5645     RCH_MSW                          

           TOTAL OUT =     1446717.0613             TOTAL OUT =        2684.9179

            IN - OUT =          -4.1653              IN - OUT =      -4.5486E-02

 PERCENT DISCREPANCY =          -0.00     PERCENT DISCREPANCY =          -0.00




         TIME SUMMARY AT END OF TIME STEP    1 IN STRESS PERIOD  357
                    SECONDS     MINUTES      HOURS       DAYS        YEARS
                    -----------------------------------------------------------
   TIME STEP LENGTH  86400.      1440.0      24.000      1.0000     2.73785E-03
 STRESS PERIOD TIME  86400.      1440.0      24.000      1.0000     2.73785E-03
         TOTAL TIME 3.08448E+07 5.14080E+05  8568.0      357.00     0.97741    


end timestep


start timestep kper="358" kstp="1" mode="normal"

 #Stressperiod Save Options

 BEGIN READING OUTPUT CONTROL FOR STRESS PERIOD 358
      ALL TIME STEPS WILL BE SAVED
      ALL TIME STEPS WILL BE SAVED

 END READING OUTPUT CONTROL FOR STRESS PERIOD 358


 PROCESSING STORAGE PERIOD DATA
 END PROCESSING STORAGE PERIOD DATA


 STRESS PERIOD 358 IS TRANSIENT


 REUSING WELS FROM LAST STRESS PERIOD

 REUSING DRNS FROM LAST STRESS PERIOD

 REUSING RIVS FROM LAST STRESS PERIOD

 REUSING RIVS FROM LAST STRESS PERIOD

 REUSING RCHS FROM LAST STRESS PERIOD
 UBDSV06 SAVING              DRN IN MODEL GWF_1            PACKAGE GWF_1           CONNECTED TO MODEL GWF_1            PACKAGE DRN_SYS1         ON UNIT   1019 AT TIME STEP      1, STRESS PERIOD    358
 UBDSV06 SAVING              RIV IN MODEL GWF_1            PACKAGE GWF_1           CONNECTED TO MODEL GWF_1            PACKAGE RIV_SYS1         ON UNIT   1019 AT TIME STEP      1, STRESS PERIOD    358
 UBDSV06 SAVING              RIV IN MODEL GWF_1            PACKAGE GWF_1           CONNECTED TO MODEL GWF_1            PACKAGE RIV_SYS2         ON UNIT   1019 AT TIME STEP      1, STRESS PERIOD    358

 HEAD WILL BE SAVED ON UNIT 1018 AT END OF TIME STEP    1, STRESS PERIOD  358


  VOLUME BUDGET FOR ENTIRE MODEL AT END OF TIME STEP    1, STRESS PERIOD 358
  ---------------------------------------------------------------------------------------------------

     CUMULATIVE VOLUME      L**3       RATES FOR THIS TIME STEP      L**3/T          PACKAGE NAME    
     ------------------                 ------------------------                     ----------------

           IN:                                      IN:
           ---                                      ---
              STO-SS =      297999.7869                STO-SS =         662.2679     STORAGE                          
                 WEL =      297955.2345                   WEL =         686.0874     RIV_CORR                         
                 DRN =           0.0000                   DRN =           0.0000     DRN_SYS1                         
                 RIV =      290832.4884                   RIV =         737.3870     RIV_SYS1                         
                 RIV =           0.0000                   RIV =           0.0000     RIV_SYS2                         
                 RCH =      562612.3356                   RCH =         601.2071     RCH_MSW                          

            TOTAL IN =     1449399.8454              TOTAL IN =        2686.9493

          OUT:                                     OUT:
          ----                                     ----
              STO-SS =      227403.3126                STO-SS =           0.0000     STORAGE                          
                 WEL =      374457.9393                   WEL =         855.1457     RIV_CORR                         
                 DRN =       92281.1795                   DRN =         259.1935     DRN_SYS1                         
                 RIV =      364287.2863                   RIV =         842.9906     RIV_SYS1                         
                 RIV =      248446.0880                   RIV =         695.7049     RIV_SYS2                         
                 RCH =      142528.2330                   RCH =          33.9425     RCH_MSW                          

           TOTAL OUT =     1449404.0386             TOTAL OUT =        2686.9772

            IN - OUT =          -4.1932              IN - OUT =      -2.7915E-02

 PERCENT DISCREPANCY =          -0.00     PERCENT DISCREPANCY =          -0.00




         TIME SUMMARY AT END OF TIME STEP    1 IN STRESS PERIOD  358
                    SECONDS     MINUTES      HOURS       DAYS        YEARS
                    -----------------------------------------------------------
   TIME STEP LENGTH  86400.      1440.0      24.000      1.0000     2.73785E-03
 STRESS PERIOD TIME  86400.      1440.0      24.000      1.0000     2.73785E-03
         TOTAL TIME 3.09312E+07 5.15520E+05  8592.0      358.00     0.98015    


end timestep


start timestep kper="359" kstp="1" mode="normal"

 #Stressperiod Save Options

 BEGIN READING OUTPUT CONTROL FOR STRESS PERIOD 359
      ALL TIME STEPS WILL BE SAVED
      ALL TIME STEPS WILL BE SAVED

 END READING OUTPUT CONTROL FOR STRESS PERIOD 359


 PROCESSING STORAGE PERIOD DATA
 END PROCESSING STORAGE PERIOD DATA


 STRESS PERIOD 359 IS TRANSIENT


 REUSING WELS FROM LAST STRESS PERIOD

 REUSING DRNS FROM LAST STRESS PERIOD

 REUSING RIVS FROM LAST STRESS PERIOD

 REUSING RIVS FROM LAST STRESS PERIOD

 REUSING RCHS FROM LAST STRESS PERIOD
 UBDSV06 SAVING              DRN IN MODEL GWF_1            PACKAGE GWF_1           CONNECTED TO MODEL GWF_1            PACKAGE DRN_SYS1         ON UNIT   1019 AT TIME STEP      1, STRESS PERIOD    359
 UBDSV06 SAVING              RIV IN MODEL GWF_1            PACKAGE GWF_1           CONNECTED TO MODEL GWF_1            PACKAGE RIV_SYS1         ON UNIT   1019 AT TIME STEP      1, STRESS PERIOD    359
 UBDSV06 SAVING              RIV IN MODEL GWF_1            PACKAGE GWF_1           CONNECTED TO MODEL GWF_1            PACKAGE RIV_SYS2         ON UNIT   1019 AT TIME STEP      1, STRESS PERIOD    359

 HEAD WILL BE SAVED ON UNIT 1018 AT END OF TIME STEP    1, STRESS PERIOD  359


  VOLUME BUDGET FOR ENTIRE MODEL AT END OF TIME STEP    1, STRESS PERIOD 359
  ---------------------------------------------------------------------------------------------------

     CUMULATIVE VOLUME      L**3       RATES FOR THIS TIME STEP      L**3/T          PACKAGE NAME    
     ------------------                 ------------------------                     ----------------

           IN:                                      IN:
           ---                                      ---
              STO-SS =      298428.7290                STO-SS =         428.9422     STORAGE                          
                 WEL =      298692.6215                   WEL =         737.3870     RIV_CORR                         
                 DRN =           0.0000                   DRN =           0.0000     DRN_SYS1                         
                 RIV =      291439.2926                   RIV =         606.8042     RIV_SYS1                         
                 RIV =           0.0000                   RIV =           0.0000     RIV_SYS2                         
                 RCH =      563668.7250                   RCH =        1056.3894     RCH_MSW                          

            TOTAL IN =     1452229.3682              TOTAL IN =        2829.5228

          OUT:                                     OUT:
          ----                                     ----
              STO-SS =      227546.1732                STO-SS =         142.8606     STORAGE                          
                 WEL =      375300.9299                   WEL =         842.9906     RIV_CORR                         
                 DRN =       92539.4504                   DRN =         258.2709     DRN_SYS1                         
                 RIV =      365179.2716                   RIV =         891.9853     RIV_SYS1                         
                 RIV =      249139.4817                   RIV =         693.3937     RIV_SYS2                         
                 RCH =      142528.2330                   RCH =           0.0000     RCH_MSW                          

           TOTAL OUT =     1452233.5397             TOTAL OUT =        2829.5012

            IN - OUT =          -4.1716              IN - OUT =       2.1594E-02

 PERCENT DISCREPANCY =          -0.00     PERCENT DISCREPANCY =           0.00




         TIME SUMMARY AT END OF TIME STEP    1 IN STRESS PERIOD  359
                    SECONDS     MINUTES      HOURS       DAYS        YEARS
                    -----------------------------------------------------------
   TIME STEP LENGTH  86400.      1440.0      24.000      1.0000     2.73785E-03
 STRESS PERIOD TIME  86400.      1440.0      24.000      1.0000     2.73785E-03
         TOTAL TIME 3.10176E+07 5.16960E+05  8616.0      359.00     0.98289    


end timestep


start timestep kper="360" kstp="1" mode="normal"

 #Stressperiod Save Options

 BEGIN READING OUTPUT CONTROL FOR STRESS PERIOD 360
      ALL TIME STEPS WILL BE SAVED
      ALL TIME STEPS WILL BE SAVED

 END READING OUTPUT CONTROL FOR STRESS PERIOD 360


 PROCESSING STORAGE PERIOD DATA
 END PROCESSING STORAGE PERIOD DATA


 STRESS PERIOD 360 IS TRANSIENT


 REUSING WELS FROM LAST STRESS PERIOD

 REUSING DRNS FROM LAST STRESS PERIOD

 REUSING RIVS FROM LAST STRESS PERIOD

 REUSING RIVS FROM LAST STRESS PERIOD

 REUSING RCHS FROM LAST STRESS PERIOD
 UBDSV06 SAVING              DRN IN MODEL GWF_1            PACKAGE GWF_1           CONNECTED TO MODEL GWF_1            PACKAGE DRN_SYS1         ON UNIT   1019 AT TIME STEP      1, STRESS PERIOD    360
 UBDSV06 SAVING              RIV IN MODEL GWF_1            PACKAGE GWF_1           CONNECTED TO MODEL GWF_1            PACKAGE RIV_SYS1         ON UNIT   1019 AT TIME STEP      1, STRESS PERIOD    360
 UBDSV06 SAVING              RIV IN MODEL GWF_1            PACKAGE GWF_1           CONNECTED TO MODEL GWF_1            PACKAGE RIV_SYS2         ON UNIT   1019 AT TIME STEP      1, STRESS PERIOD    360

 HEAD WILL BE SAVED ON UNIT 1018 AT END OF TIME STEP    1, STRESS PERIOD  360


  VOLUME BUDGET FOR ENTIRE MODEL AT END OF TIME STEP    1, STRESS PERIOD 360
  ---------------------------------------------------------------------------------------------------

     CUMULATIVE VOLUME      L**3       RATES FOR THIS TIME STEP      L**3/T          PACKAGE NAME    
     ------------------                 ------------------------                     ----------------

           IN:                                      IN:
           ---                                      ---
              STO-SS =      298518.8025                STO-SS =          90.0734     STORAGE                          
                 WEL =      299299.4256                   WEL =         606.8042     RIV_CORR                         
                 DRN =           0.0000                   DRN =           0.0000     DRN_SYS1                         
                 RIV =      291862.7999                   RIV =         423.5073     RIV_SYS1                         
                 RIV =           0.0000                   RIV =           0.0000     RIV_SYS2                         
                 RCH =      566711.7028                   RCH =        3042.9778     RCH_MSW                          

            TOTAL IN =     1456392.7308              TOTAL IN =        4163.3627

          OUT:                                     OUT:
          ----                                     ----
              STO-SS =      228614.4456                STO-SS =        1068.2724     STORAGE                          
                 WEL =      376192.9152                   WEL =         891.9853     RIV_CORR                         
                 DRN =       92798.7552                   DRN =         259.3048     DRN_SYS1                         
                 RIV =      366427.5591                   RIV =        1248.2876     RIV_SYS1                         
                 RIV =      249834.9881                   RIV =         695.5064     RIV_SYS2                         
                 RCH =      142528.2330                   RCH =           0.0000     RCH_MSW                          

           TOTAL OUT =     1456396.8963             TOTAL OUT =        4163.3566

            IN - OUT =          -4.1655              IN - OUT =       6.0921E-03

 PERCENT DISCREPANCY =          -0.00     PERCENT DISCREPANCY =           0.00




         TIME SUMMARY AT END OF TIME STEP    1 IN STRESS PERIOD  360
                    SECONDS     MINUTES      HOURS       DAYS        YEARS
                    -----------------------------------------------------------
   TIME STEP LENGTH  86400.      1440.0      24.000      1.0000     2.73785E-03
 STRESS PERIOD TIME  86400.      1440.0      24.000      1.0000     2.73785E-03
         TOTAL TIME 3.11040E+07 5.18400E+05  8640.0      360.00     0.98563    


end timestep


start timestep kper="361" kstp="1" mode="normal"

 #Stressperiod Save Options

 BEGIN READING OUTPUT CONTROL FOR STRESS PERIOD 361
      ALL TIME STEPS WILL BE SAVED
      ALL TIME STEPS WILL BE SAVED

 END READING OUTPUT CONTROL FOR STRESS PERIOD 361


 PROCESSING STORAGE PERIOD DATA
 END PROCESSING STORAGE PERIOD DATA


 STRESS PERIOD 361 IS TRANSIENT


 REUSING WELS FROM LAST STRESS PERIOD

 REUSING DRNS FROM LAST STRESS PERIOD

 REUSING RIVS FROM LAST STRESS PERIOD

 REUSING RIVS FROM LAST STRESS PERIOD

 REUSING RCHS FROM LAST STRESS PERIOD
 UBDSV06 SAVING              DRN IN MODEL GWF_1            PACKAGE GWF_1           CONNECTED TO MODEL GWF_1            PACKAGE DRN_SYS1         ON UNIT   1019 AT TIME STEP      1, STRESS PERIOD    361
 UBDSV06 SAVING              RIV IN MODEL GWF_1            PACKAGE GWF_1           CONNECTED TO MODEL GWF_1            PACKAGE RIV_SYS1         ON UNIT   1019 AT TIME STEP      1, STRESS PERIOD    361
 UBDSV06 SAVING              RIV IN MODEL GWF_1            PACKAGE GWF_1           CONNECTED TO MODEL GWF_1            PACKAGE RIV_SYS2         ON UNIT   1019 AT TIME STEP      1, STRESS PERIOD    361

 HEAD WILL BE SAVED ON UNIT 1018 AT END OF TIME STEP    1, STRESS PERIOD  361


  VOLUME BUDGET FOR ENTIRE MODEL AT END OF TIME STEP    1, STRESS PERIOD 361
  ---------------------------------------------------------------------------------------------------

     CUMULATIVE VOLUME      L**3       RATES FOR THIS TIME STEP      L**3/T          PACKAGE NAME    
     ------------------                 ------------------------                     ----------------

           IN:                                      IN:
           ---                                      ---
              STO-SS =      298518.8025                STO-SS =           0.0000     STORAGE                          
                 WEL =      299722.9330                   WEL =         423.5073     RIV_CORR                         
                 DRN =           0.0000                   DRN =           0.0000     DRN_SYS1                         
                 RIV =      291981.1370                   RIV =         118.3371     RIV_SYS1                         
                 RIV =           0.0000                   RIV =           0.0000     RIV_SYS2                         
                 RCH =      591208.7625                   RCH =       24497.0597     RCH_MSW                          

            TOTAL IN =     1481431.6349              TOTAL IN =       25038.9041

          OUT:                                     OUT:
          ----                                     ----
              STO-SS =      247133.9570                STO-SS =       18519.5114     STORAGE                          
                 WEL =      377441.2028                   WEL =        1248.2876     RIV_CORR                         
                 DRN =       93098.7487                   DRN =         299.9935     DRN_SYS1                         
                 RIV =      370603.7458                   RIV =        4176.1867     RIV_SYS1                         
                 RIV =      250629.9148                   RIV =         794.9267     RIV_SYS2                         
                 RCH =      142528.2330                   RCH =           0.0000     RCH_MSW                          

           TOTAL OUT =     1481435.8021             TOTAL OUT =       25038.9058

            IN - OUT =          -4.1672              IN - OUT =      -1.6908E-03

 PERCENT DISCREPANCY =          -0.00     PERCENT DISCREPANCY =          -0.00




         TIME SUMMARY AT END OF TIME STEP    1 IN STRESS PERIOD  361
                    SECONDS     MINUTES      HOURS       DAYS        YEARS
                    -----------------------------------------------------------
   TIME STEP LENGTH  86400.      1440.0      24.000      1.0000     2.73785E-03
 STRESS PERIOD TIME  86400.      1440.0      24.000      1.0000     2.73785E-03
         TOTAL TIME 3.11904E+07 5.19840E+05  8664.0      361.00     0.98836    


end timestep


start timestep kper="362" kstp="1" mode="normal"

 #Stressperiod Save Options

 BEGIN READING OUTPUT CONTROL FOR STRESS PERIOD 362
      ALL TIME STEPS WILL BE SAVED
      ALL TIME STEPS WILL BE SAVED

 END READING OUTPUT CONTROL FOR STRESS PERIOD 362


 PROCESSING STORAGE PERIOD DATA
 END PROCESSING STORAGE PERIOD DATA


 STRESS PERIOD 362 IS TRANSIENT


 REUSING WELS FROM LAST STRESS PERIOD

 REUSING DRNS FROM LAST STRESS PERIOD

 REUSING RIVS FROM LAST STRESS PERIOD

 REUSING RIVS FROM LAST STRESS PERIOD

 REUSING RCHS FROM LAST STRESS PERIOD
 UBDSV06 SAVING              DRN IN MODEL GWF_1            PACKAGE GWF_1           CONNECTED TO MODEL GWF_1            PACKAGE DRN_SYS1         ON UNIT   1019 AT TIME STEP      1, STRESS PERIOD    362
 UBDSV06 SAVING              RIV IN MODEL GWF_1            PACKAGE GWF_1           CONNECTED TO MODEL GWF_1            PACKAGE RIV_SYS1         ON UNIT   1019 AT TIME STEP      1, STRESS PERIOD    362
 UBDSV06 SAVING              RIV IN MODEL GWF_1            PACKAGE GWF_1           CONNECTED TO MODEL GWF_1            PACKAGE RIV_SYS2         ON UNIT   1019 AT TIME STEP      1, STRESS PERIOD    362

 HEAD WILL BE SAVED ON UNIT 1018 AT END OF TIME STEP    1, STRESS PERIOD  362


  VOLUME BUDGET FOR ENTIRE MODEL AT END OF TIME STEP    1, STRESS PERIOD 362
  ---------------------------------------------------------------------------------------------------

     CUMULATIVE VOLUME      L**3       RATES FOR THIS TIME STEP      L**3/T          PACKAGE NAME    
     ------------------                 ------------------------                     ----------------

           IN:                                      IN:
           ---                                      ---
              STO-SS =      303417.4481                STO-SS =        4898.6456     STORAGE                          
                 WEL =      299841.2701                   WEL =         118.3371     RIV_CORR                         
                 DRN =           0.0000                   DRN =           0.0000     DRN_SYS1                         
                 RIV =      292318.5164                   RIV =         337.3794     RIV_SYS1                         
                 RIV =           0.0000                   RIV =           0.0000     RIV_SYS2                         
                 RCH =      602433.1226                   RCH =       11224.3601     RCH_MSW                          

            TOTAL IN =     1498010.3572              TOTAL IN =       16578.7223

          OUT:                                     OUT:
          ----                                     ----
              STO-SS =      252764.0064                STO-SS =        5630.0494     STORAGE                          
                 WEL =      381617.3895                   WEL =        4176.1867     RIV_CORR                         
                 DRN =       93415.0950                   DRN =         316.3463     DRN_SYS1                         
                 RIV =      372656.9093                   RIV =        2053.1635     RIV_SYS1                         
                 RIV =      251473.3084                   RIV =         843.3936     RIV_SYS2                         
                 RCH =      146087.8294                   RCH =        3559.5964     RCH_MSW                          

           TOTAL OUT =     1498014.5380             TOTAL OUT =       16578.7359

            IN - OUT =          -4.1808              IN - OUT =      -1.3633E-02

 PERCENT DISCREPANCY =          -0.00     PERCENT DISCREPANCY =          -0.00




         TIME SUMMARY AT END OF TIME STEP    1 IN STRESS PERIOD  362
                    SECONDS     MINUTES      HOURS       DAYS        YEARS
                    -----------------------------------------------------------
   TIME STEP LENGTH  86400.      1440.0      24.000      1.0000     2.73785E-03
 STRESS PERIOD TIME  86400.      1440.0      24.000      1.0000     2.73785E-03
         TOTAL TIME 3.12768E+07 5.21280E+05  8688.0      362.00     0.99110    


end timestep


start timestep kper="363" kstp="1" mode="normal"

 #Stressperiod Save Options

 BEGIN READING OUTPUT CONTROL FOR STRESS PERIOD 363
      ALL TIME STEPS WILL BE SAVED
      ALL TIME STEPS WILL BE SAVED

 END READING OUTPUT CONTROL FOR STRESS PERIOD 363


 PROCESSING STORAGE PERIOD DATA
 END PROCESSING STORAGE PERIOD DATA


 STRESS PERIOD 363 IS TRANSIENT


 REUSING WELS FROM LAST STRESS PERIOD

 REUSING DRNS FROM LAST STRESS PERIOD

 REUSING RIVS FROM LAST STRESS PERIOD

 REUSING RIVS FROM LAST STRESS PERIOD

 REUSING RCHS FROM LAST STRESS PERIOD
 UBDSV06 SAVING              DRN IN MODEL GWF_1            PACKAGE GWF_1           CONNECTED TO MODEL GWF_1            PACKAGE DRN_SYS1         ON UNIT   1019 AT TIME STEP      1, STRESS PERIOD    363
 UBDSV06 SAVING              RIV IN MODEL GWF_1            PACKAGE GWF_1           CONNECTED TO MODEL GWF_1            PACKAGE RIV_SYS1         ON UNIT   1019 AT TIME STEP      1, STRESS PERIOD    363
 UBDSV06 SAVING              RIV IN MODEL GWF_1            PACKAGE GWF_1           CONNECTED TO MODEL GWF_1            PACKAGE RIV_SYS2         ON UNIT   1019 AT TIME STEP      1, STRESS PERIOD    363

 HEAD WILL BE SAVED ON UNIT 1018 AT END OF TIME STEP    1, STRESS PERIOD  363


  VOLUME BUDGET FOR ENTIRE MODEL AT END OF TIME STEP    1, STRESS PERIOD 363
  ---------------------------------------------------------------------------------------------------

     CUMULATIVE VOLUME      L**3       RATES FOR THIS TIME STEP      L**3/T          PACKAGE NAME    
     ------------------                 ------------------------                     ----------------

           IN:                                      IN:
           ---                                      ---
              STO-SS =      303417.4481                STO-SS =           0.0000     STORAGE                          
                 WEL =      300178.6495                   WEL =         337.3794     RIV_CORR                         
                 DRN =           0.0000                   DRN =           0.0000     DRN_SYS1                         
                 RIV =      292450.0946                   RIV =         131.5782     RIV_SYS1                         
                 RIV =           0.0000                   RIV =           0.0000     RIV_SYS2                         
                 RCH =      615254.4184                   RCH =       12821.2958     RCH_MSW                          

            TOTAL IN =     1511300.6105              TOTAL IN =       13290.2534

          OUT:                                     OUT:
          ----                                     ----
              STO-SS =      259599.6672                STO-SS =        6835.6608     STORAGE                          
                 WEL =      383670.5530                   WEL =        2053.1635     RIV_CORR                         
                 DRN =       93745.4957                   DRN =         330.4007     DRN_SYS1                         
                 RIV =      375844.8690                   RIV =        3187.9597     RIV_SYS1                         
                 RIV =      252356.3862                   RIV =         883.0778     RIV_SYS2                         
                 RCH =      146087.8294                   RCH =           0.0000     RCH_MSW                          

           TOTAL OUT =     1511304.8005             TOTAL OUT =       13290.2626

            IN - OUT =          -4.1900              IN - OUT =      -9.1701E-03

 PERCENT DISCREPANCY =          -0.00     PERCENT DISCREPANCY =          -0.00




         TIME SUMMARY AT END OF TIME STEP    1 IN STRESS PERIOD  363
                    SECONDS     MINUTES      HOURS       DAYS        YEARS
                    -----------------------------------------------------------
   TIME STEP LENGTH  86400.      1440.0      24.000      1.0000     2.73785E-03
 STRESS PERIOD TIME  86400.      1440.0      24.000      1.0000     2.73785E-03
         TOTAL TIME 3.13632E+07 5.22720E+05  8712.0      363.00     0.99384    


end timestep


start timestep kper="364" kstp="1" mode="normal"

 #Stressperiod Save Options

 BEGIN READING OUTPUT CONTROL FOR STRESS PERIOD 364
      ALL TIME STEPS WILL BE SAVED
      ALL TIME STEPS WILL BE SAVED

 END READING OUTPUT CONTROL FOR STRESS PERIOD 364


 PROCESSING STORAGE PERIOD DATA
 END PROCESSING STORAGE PERIOD DATA


 STRESS PERIOD 364 IS TRANSIENT


 REUSING WELS FROM LAST STRESS PERIOD

 REUSING DRNS FROM LAST STRESS PERIOD

 REUSING RIVS FROM LAST STRESS PERIOD

 REUSING RIVS FROM LAST STRESS PERIOD

 REUSING RCHS FROM LAST STRESS PERIOD
 UBDSV06 SAVING              DRN IN MODEL GWF_1            PACKAGE GWF_1           CONNECTED TO MODEL GWF_1            PACKAGE DRN_SYS1         ON UNIT   1019 AT TIME STEP      1, STRESS PERIOD    364
 UBDSV06 SAVING              RIV IN MODEL GWF_1            PACKAGE GWF_1           CONNECTED TO MODEL GWF_1            PACKAGE RIV_SYS1         ON UNIT   1019 AT TIME STEP      1, STRESS PERIOD    364
 UBDSV06 SAVING              RIV IN MODEL GWF_1            PACKAGE GWF_1           CONNECTED TO MODEL GWF_1            PACKAGE RIV_SYS2         ON UNIT   1019 AT TIME STEP      1, STRESS PERIOD    364

 HEAD WILL BE SAVED ON UNIT 1018 AT END OF TIME STEP    1, STRESS PERIOD  364


  VOLUME BUDGET FOR ENTIRE MODEL AT END OF TIME STEP    1, STRESS PERIOD 364
  ---------------------------------------------------------------------------------------------------

     CUMULATIVE VOLUME      L**3       RATES FOR THIS TIME STEP      L**3/T          PACKAGE NAME    
     ------------------                 ------------------------                     ----------------

           IN:                                      IN:
           ---                                      ---
              STO-SS =      304664.7494                STO-SS =        1247.3013     STORAGE                          
                 WEL =      300310.2277                   WEL =         131.5782     RIV_CORR                         
                 DRN =           0.0000                   DRN =           0.0000     DRN_SYS1                         
                 RIV =      292648.9135                   RIV =         198.8189     RIV_SYS1                         
                 RIV =           0.0000                   RIV =           0.0000     RIV_SYS2                         
                 RCH =      624541.6201                   RCH =        9287.2017     RCH_MSW                          

            TOTAL IN =     1522165.5106              TOTAL IN =       10864.9001

          OUT:                                     OUT:
          ----                                     ----
              STO-SS =      262581.5623                STO-SS =        2981.8950     STORAGE                          
                 WEL =      386858.5127                   WEL =        3187.9597     RIV_CORR                         
                 DRN =       94083.0760                   DRN =         337.5803     DRN_SYS1                         
                 RIV =      378392.6781                   RIV =        2547.8091     RIV_SYS1                         
                 RIV =      253260.5347                   RIV =         904.1485     RIV_SYS2                         
                 RCH =      146993.3019                   RCH =         905.4725     RCH_MSW                          

           TOTAL OUT =     1522169.6657             TOTAL OUT =       10864.8652

            IN - OUT =          -4.1551              IN - OUT =       3.4914E-02

 PERCENT DISCREPANCY =          -0.00     PERCENT DISCREPANCY =           0.00




         TIME SUMMARY AT END OF TIME STEP    1 IN STRESS PERIOD  364
                    SECONDS     MINUTES      HOURS       DAYS        YEARS
                    -----------------------------------------------------------
   TIME STEP LENGTH  86400.      1440.0      24.000      1.0000     2.73785E-03
 STRESS PERIOD TIME  86400.      1440.0      24.000      1.0000     2.73785E-03
         TOTAL TIME 3.14496E+07 5.24160E+05  8736.0      364.00     0.99658    


end timestep


start timestep kper="365" kstp="1" mode="normal"

 #Stressperiod Save Options

 BEGIN READING OUTPUT CONTROL FOR STRESS PERIOD 365
      ALL TIME STEPS WILL BE SAVED
      ALL TIME STEPS WILL BE SAVED

 END READING OUTPUT CONTROL FOR STRESS PERIOD 365


 PROCESSING STORAGE PERIOD DATA
 END PROCESSING STORAGE PERIOD DATA


 STRESS PERIOD 365 IS TRANSIENT


 REUSING WELS FROM LAST STRESS PERIOD

 REUSING DRNS FROM LAST STRESS PERIOD

 REUSING RIVS FROM LAST STRESS PERIOD

 REUSING RIVS FROM LAST STRESS PERIOD

 REUSING RCHS FROM LAST STRESS PERIOD
 UBDSV06 SAVING              DRN IN MODEL GWF_1            PACKAGE GWF_1           CONNECTED TO MODEL GWF_1            PACKAGE DRN_SYS1         ON UNIT   1019 AT TIME STEP      1, STRESS PERIOD    365
 UBDSV06 SAVING              RIV IN MODEL GWF_1            PACKAGE GWF_1           CONNECTED TO MODEL GWF_1            PACKAGE RIV_SYS1         ON UNIT   1019 AT TIME STEP      1, STRESS PERIOD    365
 UBDSV06 SAVING              RIV IN MODEL GWF_1            PACKAGE GWF_1           CONNECTED TO MODEL GWF_1            PACKAGE RIV_SYS2         ON UNIT   1019 AT TIME STEP      1, STRESS PERIOD    365

 HEAD WILL BE SAVED ON UNIT 1018 AT END OF TIME STEP    1, STRESS PERIOD  365


  VOLUME BUDGET FOR ENTIRE MODEL AT END OF TIME STEP    1, STRESS PERIOD 365
  ---------------------------------------------------------------------------------------------------

     CUMULATIVE VOLUME      L**3       RATES FOR THIS TIME STEP      L**3/T          PACKAGE NAME    
     ------------------                 ------------------------                     ----------------

           IN:                                      IN:
           ---                                      ---
              STO-SS =      305365.4975                STO-SS =         700.7481     STORAGE                          
                 WEL =      300509.0465                   WEL =         198.8189     RIV_CORR                         
                 DRN =           0.0000                   DRN =           0.0000     DRN_SYS1                         
                 RIV =      292853.6672                   RIV =         204.7538     RIV_SYS1                         
                 RIV =           0.0000                   RIV =           0.0000     RIV_SYS2                         
                 RCH =      630705.7455                   RCH =        6164.1254     RCH_MSW                          

            TOTAL IN =     1529433.9568              TOTAL IN =        7268.4461

          OUT:                                     OUT:
          ----                                     ----
              STO-SS =      263496.7295                STO-SS =         915.1672     STORAGE                          
                 WEL =      389406.3218                   WEL =        2547.8091     RIV_CORR                         
                 DRN =       94420.7468                   DRN =         337.6708     DRN_SYS1                         
                 RIV =      380915.7987                   RIV =        2523.1206     RIV_SYS1                         
                 RIV =      254166.3946                   RIV =         905.8599     RIV_SYS2                         
                 RCH =      147032.1231                   RCH =          38.8212     RCH_MSW                          

           TOTAL OUT =     1529438.1145             TOTAL OUT =        7268.4488

            IN - OUT =          -4.1578              IN - OUT =      -2.6953E-03

 PERCENT DISCREPANCY =          -0.00     PERCENT DISCREPANCY =          -0.00




         TIME SUMMARY AT END OF TIME STEP    1 IN STRESS PERIOD  365
                    SECONDS     MINUTES      HOURS       DAYS        YEARS
                    -----------------------------------------------------------
   TIME STEP LENGTH  86400.      1440.0      24.000      1.0000     2.73785E-03
 STRESS PERIOD TIME  86400.      1440.0      24.000      1.0000     2.73785E-03
         TOTAL TIME 3.15360E+07 5.25600E+05  8760.0      365.00     0.99932    


end timestep

