                                   MODFLOW 6
                U.S. GEOLOGICAL SURVEY MODULAR HYDROLOGIC MODEL
                          GROUNDWATER FLOW MODEL (GWF)
                  VERSION 6.5.0.dev0 (preliminary) 07/13/2023
                               ***DEVELOP MODE***

   MODFLOW 6 compiled Nov 13 2023 06:01:23 with Intel(R) Fortran Intel(R) 64
   Compiler Classic for applications running on Intel(R) 64, Version 2021.9.0
                             Build 20230302_000000

This software is preliminary or provisional and is subject to 
revision. It is being provided to meet the need for timely best 
science. The software has not received final approval by the U.S. 
Geological Survey (USGS). No warranty, expressed or implied, is made 
by the USGS or the U.S. Government as to the functionality of the 
software and related material nor shall the fact of release 
constitute any such warranty. The software is provided on the 
condition that neither the USGS nor the U.S. Government shall be held 
liable for any damages resulting from the authorized or unauthorized 
use of the software.


As a work of the United States Government, this USGS product is 
in the public domain within the United States. You can copy, 
modify, distribute, and perform the work, even for commercial 
purposes, all without asking permission. Additionally, USGS 
waives copyright and related rights in the work worldwide 
through CC0 1.0 Universal Public Domain Dedication 
(https://creativecommons.org/publicdomain/zero/1.0/).

The following GNU Lesser General Public License (LGPL) libraries
are used in this USGS product:

    SPARSKIT version 2.0
      ilut, luson, and qsplit 
      (https://www-users.cse.umn.edu/~saad/software/SPARSKIT/)

    RCM - Reverse Cuthill McKee Ordering
      (https://people.math.sc.edu/Burkardt/f_src/rcm/rcm.html)

    BLAS - Basic Linear Algebra Subprograms Level 1
      (https://people.math.sc.edu/Burkardt/f_src/blas1_d/blas1_d.html)

    SPARSEKIT - Sparse Matrix Utility Package
      amux, dperm, dvperm, rperm, and cperm
      (https://people.sc.fsu.edu/~jburkardt/f77_src/sparsekit/sparsekit.html)

The following BSD-3 License libraries are used in this USGS product:

    Modern Fortran DAG Library
      Copyright (c) 2018, Jacob Williams
      All rights reserved.
      (https://github.com/jacobwilliams/daglib)

MODFLOW 6 compiler options: /Isrc\libmf6core.a.p /Isrc /I..\src
/Isrc\libmf6_external.a.p /MTd /nologo /warn:general /warn:truncated_source
/stand:f08 /Zi /traceback /O2 /fpe:0 /heap-arrays:0 /traceback /fpp
/Qdiag-disable:7416 /Qdiag-disable:7025 /Qdiag-disable:5268
/Fdsrc\libmf6core.a.p\Utilities_compilerversion.F90.pdb
/module:src\libmf6core.a.p
/Fosrc/libmf6core.a.p/Utilities_compilerversion.F90.obj /c

System command used to initiate simulation:
C:\IMOD-python\forge\envs\imod_coupler_riba\python.exe c:\Users\kok_hk\.vscode\extensions\ms-python.python-2023.20.0\pythonFiles\lib\python\debugpy\launcher/../..\debugpy --connect 127.0.0.1:63195 --configure-qt none --adapter-access-token cfd2a57bd7a4ce494fec3d04420f527c9ef07ac0399319c0b31303642e4fd0b0 C:\src\imod_coupler\imod_coupler\drivers\metamod\test.py

MODFLOW was compiled using uniform precision.

Real Variables
  KIND: 8
  TINY (smallest non-zero value):    2.225074-308
  HUGE (largest value):    1.797693+308
  PRECISION: 15
  SIZE IN BITS: 64

Integer Variables
  KIND: 4
  HUGE (largest value): 2147483647
  SIZE IN BITS: 32

Long Integer Variables
  KIND: 8
  HUGE (largest value): 9223372036854775807
  SIZE IN BITS: 64

Logical Variables
  KIND: 4
  SIZE IN BITS: 32
 
 NAMEFILE OPTIONS:
 END NAMEFILE OPTIONS:

 DIS -- STRUCTURED GRID DISCRETIZATION PACKAGE, VERSION 2 : 3/27/2014 - INPUT READ FROM MEMPATH: __INPUT__/GWF_1/DIS                               


 NPF -- NODE PROPERTY FLOW PACKAGE, VERSION 1, 3/30/2015 INPUT READ FROM MEMPATH: __INPUT__/GWF_1/NPF                               


 IC -- Initial Conditions Package, Version 8, 3/28/2015 input read from mempath: __INPUT__/GWF_1/IC                                


 Setting Discretization Options
    XORIGIN = 50.00000000000000
    YORIGIN = 50.00000000000000
 End Setting Discretization Options

 Setting Discretization Dimensions
    NLAY = 3
    NROW = 3
    NCOL = 5
 End Setting Discretization Dimensions

 Setting Discretization Griddata
    DELR set from input file
    DELC set from input file
    TOP set from input file
    BOTM set from input file
    IDOMAIN set from input file
 End Setting Discretization Griddata

 Setting NPF Options
    Cell-by-cell flow information will be saved to binary file whenever ICBCFL is not zero.
    Vertical conductance varies with water table.
 End Setting NPF Options

 Setting NPF Griddata
    ICELLTYPE set from input file
    K set from input file
    K33 set from input file
    K22 not provided.  Setting K22 = K.
 End Setting NPF Griddata


 RIV   -- RIV PACKAGE, VERSION 8, 2/22/2014 INPUT READ FROM MEMPATH: __INPUT__/GWF_1/RIV-1                             

 PROCESSING RIV BASE OPTIONS
    FLOWS WILL BE SAVED TO BUDGET FILE SPECIFIED IN OUTPUT CONTROL
 END OF RIV BASE OPTIONS

 PROCESSING RIV OPTIONS
 END OF RIV OPTIONS

 PROCESSING RIV BASE DIMENSIONS
    MAXBOUND =       1
 END OF RIV BASE DIMENSIONS

 RCH   -- RCH PACKAGE, VERSION 8, 2/22/2014 INPUT READ FROM MEMPATH: __INPUT__/GWF_1/RCH_MSW                           

 PROCESSING RCH BASE OPTIONS
    FLOWS WILL BE SAVED TO BUDGET FILE SPECIFIED IN OUTPUT CONTROL
 END OF RCH BASE OPTIONS

 PROCESSING RCH OPTIONS
 END OF RCH OPTIONS

 PROCESSING RCH BASE DIMENSIONS
    MAXBOUND =      15
 END OF RCH BASE DIMENSIONS
    STRT set from input file

 STO -- STORAGE PACKAGE, VERSION 1, 5/19/2014 INPUT READ FROM UNIT 1006


 PROCESSING STORAGE OPTIONS
 END OF STORAGE OPTIONS
 PROCESSING GRIDDATA

                 ICONVERT = 0

         SPECIFIC STORAGE =  0.1000000E-02

           SPECIFIC YIELD =  0.1000000    
 END PROCESSING GRIDDATA
    BINARY GRID INFORMATION WILL BE WRITTEN TO:
      UNIT NUMBER: 1015
      FILE NAME: GWF_1/dis.dis.grb

 OPENED GWF_1/dis.dis.grb
 FILE TYPE:DATA(BINARY)   UNIT 1015   STATUS:REPLACE             
 FORMAT:UNFORMATTED            ACCESS:STREAM              
 ACTION:READWRITE           

      THE LAST TIME STEP WILL BE PRINTED
      THE LAST TIME STEP WILL BE PRINTED

 PROCESSING OC OPTIONS

    BUDGET INFORMATION WILL BE WRITTEN TO:
      UNIT NUMBER: 1016
      FILE NAME: GWF_1/GWF_1.cbc

 OPENED GWF_1/GWF_1.cbc
 FILE TYPE:DATA(BINARY)   UNIT 1016   STATUS:REPLACE             
 FORMAT:UNFORMATTED            ACCESS:STREAM              
 ACTION:READWRITE           

    HEAD INFORMATION WILL BE WRITTEN TO:
      UNIT NUMBER: 1017
      FILE NAME: GWF_1/GWF_1.hds

 OPENED GWF_1/GWF_1.hds
 FILE TYPE:DATA(BINARY)   UNIT 1017   STATUS:REPLACE             
 FORMAT:UNFORMATTED            ACCESS:STREAM              
 ACTION:READWRITE           

 END OF OC OPTIONS

start timestep kper="1" kstp="1" mode="normal"


 BEGIN READING OUTPUT CONTROL FOR STRESS PERIOD 1
      THE LAST TIME STEP WILL BE SAVED
      THE LAST TIME STEP WILL BE SAVED

 END READING OUTPUT CONTROL FOR STRESS PERIOD 1


 PROCESSING STORAGE PERIOD DATA
 END PROCESSING STORAGE PERIOD DATA


 STRESS PERIOD 1 IS TRANSIENT

 UBDSV1 SAVING     FLOW-JA-FACE ON UNIT   1016 AT TIME STEP      1, STRESS PERIOD      1
 UBDSV06 SAVING              RIV IN MODEL GWF_1            PACKAGE GWF_1           CONNECTED TO MODEL GWF_1            PACKAGE RIV-1            ON UNIT   1016 AT TIME STEP      1, STRESS PERIOD      1
 UBDSV06 SAVING              RCH IN MODEL GWF_1            PACKAGE GWF_1           CONNECTED TO MODEL GWF_1            PACKAGE RCH_MSW          ON UNIT   1016 AT TIME STEP      1, STRESS PERIOD      1

 HEAD WILL BE SAVED ON UNIT 1017 AT END OF TIME STEP    1, STRESS PERIOD    1


  VOLUME BUDGET FOR ENTIRE MODEL AT END OF TIME STEP    1, STRESS PERIOD   1
  ---------------------------------------------------------------------------------------------------

     CUMULATIVE VOLUME      L**3       RATES FOR THIS TIME STEP      L**3/T          PACKAGE NAME    
     ------------------                 ------------------------                     ----------------

           IN:                                      IN:
           ---                                      ---
              STO-SS =           0.0000                STO-SS =           0.0000     STORAGE                          
                 RIV =           0.0000                   RIV =           0.0000     RIV-1                            
                 RCH =        1822.4643                   RCH =        1822.4643     RCH_MSW                          

            TOTAL IN =        1822.4643              TOTAL IN =        1822.4643

          OUT:                                     OUT:
          ----                                     ----
              STO-SS =        1822.4643                STO-SS =        1822.4643     STORAGE                          
                 RIV =           0.0000                   RIV =           0.0000     RIV-1                            
                 RCH =           0.0000                   RCH =           0.0000     RCH_MSW                          

           TOTAL OUT =        1822.4643             TOTAL OUT =        1822.4643

            IN - OUT =       1.1341E-09              IN - OUT =       1.1341E-09

 PERCENT DISCREPANCY =           0.00     PERCENT DISCREPANCY =           0.00




         TIME SUMMARY AT END OF TIME STEP    1 IN STRESS PERIOD    1
                    SECONDS     MINUTES      HOURS       DAYS        YEARS
                    -----------------------------------------------------------
   TIME STEP LENGTH  86400.      1440.0      24.000      1.0000     2.73785E-03
 STRESS PERIOD TIME  86400.      1440.0      24.000      1.0000     2.73785E-03
         TOTAL TIME  86400.      1440.0      24.000      1.0000     2.73785E-03


end timestep


start timestep kper="2" kstp="1" mode="normal"


 END OF FILE DETECTED IN OUTPUT CONTROL.
 CURRENT OUTPUT CONTROL SETTINGS WILL BE 
 REPEATED UNTIL THE END OF THE SIMULATION.

 OUTPUT CONTROL FOR STRESS PERIOD 2 IS REPEATED USING SETTINGS FROM A PREVIOUS STRESS PERIOD.


 STRESS PERIOD 2 IS TRANSIENT

 UBDSV1 SAVING     FLOW-JA-FACE ON UNIT   1016 AT TIME STEP      1, STRESS PERIOD      2
 UBDSV06 SAVING              RIV IN MODEL GWF_1            PACKAGE GWF_1           CONNECTED TO MODEL GWF_1            PACKAGE RIV-1            ON UNIT   1016 AT TIME STEP      1, STRESS PERIOD      2
 UBDSV06 SAVING              RCH IN MODEL GWF_1            PACKAGE GWF_1           CONNECTED TO MODEL GWF_1            PACKAGE RCH_MSW          ON UNIT   1016 AT TIME STEP      1, STRESS PERIOD      2

 HEAD WILL BE SAVED ON UNIT 1017 AT END OF TIME STEP    1, STRESS PERIOD    2


  VOLUME BUDGET FOR ENTIRE MODEL AT END OF TIME STEP    1, STRESS PERIOD   2
  ---------------------------------------------------------------------------------------------------

     CUMULATIVE VOLUME      L**3       RATES FOR THIS TIME STEP      L**3/T          PACKAGE NAME    
     ------------------                 ------------------------                     ----------------

           IN:                                      IN:
           ---                                      ---
              STO-SS =           0.0000                STO-SS =           0.0000     STORAGE                          
                 RIV =           0.0000                   RIV =           0.0000     RIV-1                            
                 RCH =        3265.0056                   RCH =        1442.5413     RCH_MSW                          

            TOTAL IN =        3265.0056              TOTAL IN =        1442.5413

          OUT:                                     OUT:
          ----                                     ----
              STO-SS =        3265.0056                STO-SS =        1442.5413     STORAGE                          
                 RIV =           0.0000                   RIV =           0.0000     RIV-1                            
                 RCH =           0.0000                   RCH =           0.0000     RCH_MSW                          

           TOTAL OUT =        3265.0056             TOTAL OUT =        1442.5413

            IN - OUT =       3.2924E-09              IN - OUT =       2.1582E-09

 PERCENT DISCREPANCY =           0.00     PERCENT DISCREPANCY =           0.00




         TIME SUMMARY AT END OF TIME STEP    1 IN STRESS PERIOD    2
                    SECONDS     MINUTES      HOURS       DAYS        YEARS
                    -----------------------------------------------------------
   TIME STEP LENGTH  86400.      1440.0      24.000      1.0000     2.73785E-03
 STRESS PERIOD TIME  86400.      1440.0      24.000      1.0000     2.73785E-03
         TOTAL TIME 1.72800E+05  2880.0      48.000      2.0000     5.47570E-03


end timestep


start timestep kper="3" kstp="1" mode="normal"


 OUTPUT CONTROL FOR STRESS PERIOD 3 IS REPEATED USING SETTINGS FROM A PREVIOUS STRESS PERIOD.


 STRESS PERIOD 3 IS TRANSIENT

 UBDSV1 SAVING     FLOW-JA-FACE ON UNIT   1016 AT TIME STEP      1, STRESS PERIOD      3
 UBDSV06 SAVING              RIV IN MODEL GWF_1            PACKAGE GWF_1           CONNECTED TO MODEL GWF_1            PACKAGE RIV-1            ON UNIT   1016 AT TIME STEP      1, STRESS PERIOD      3
 UBDSV06 SAVING              RCH IN MODEL GWF_1            PACKAGE GWF_1           CONNECTED TO MODEL GWF_1            PACKAGE RCH_MSW          ON UNIT   1016 AT TIME STEP      1, STRESS PERIOD      3

 HEAD WILL BE SAVED ON UNIT 1017 AT END OF TIME STEP    1, STRESS PERIOD    3


  VOLUME BUDGET FOR ENTIRE MODEL AT END OF TIME STEP    1, STRESS PERIOD   3
  ---------------------------------------------------------------------------------------------------

     CUMULATIVE VOLUME      L**3       RATES FOR THIS TIME STEP      L**3/T          PACKAGE NAME    
     ------------------                 ------------------------                     ----------------

           IN:                                      IN:
           ---                                      ---
              STO-SS =           0.0000                STO-SS =           0.0000     STORAGE                          
                 RIV =           0.0000                   RIV =           0.0000     RIV-1                            
                 RCH =        4403.7579                   RCH =        1138.7523     RCH_MSW                          

            TOTAL IN =        4403.7579              TOTAL IN =        1138.7523

          OUT:                                     OUT:
          ----                                     ----
              STO-SS =        4403.7579                STO-SS =        1138.7523     STORAGE                          
                 RIV =           0.0000                   RIV =           0.0000     RIV-1                            
                 RCH =           0.0000                   RCH =           0.0000     RCH_MSW                          

           TOTAL OUT =        4403.7579             TOTAL OUT =        1138.7523

            IN - OUT =       1.8545E-09              IN - OUT =      -1.4379E-09

 PERCENT DISCREPANCY =           0.00     PERCENT DISCREPANCY =          -0.00




         TIME SUMMARY AT END OF TIME STEP    1 IN STRESS PERIOD    3
                    SECONDS     MINUTES      HOURS       DAYS        YEARS
                    -----------------------------------------------------------
   TIME STEP LENGTH  86400.      1440.0      24.000      1.0000     2.73785E-03
 STRESS PERIOD TIME  86400.      1440.0      24.000      1.0000     2.73785E-03
         TOTAL TIME 2.59200E+05  4320.0      72.000      3.0000     8.21355E-03


end timestep


start timestep kper="4" kstp="1" mode="normal"


 OUTPUT CONTROL FOR STRESS PERIOD 4 IS REPEATED USING SETTINGS FROM A PREVIOUS STRESS PERIOD.


 STRESS PERIOD 4 IS TRANSIENT

 UBDSV1 SAVING     FLOW-JA-FACE ON UNIT   1016 AT TIME STEP      1, STRESS PERIOD      4
 UBDSV06 SAVING              RIV IN MODEL GWF_1            PACKAGE GWF_1           CONNECTED TO MODEL GWF_1            PACKAGE RIV-1            ON UNIT   1016 AT TIME STEP      1, STRESS PERIOD      4
 UBDSV06 SAVING              RCH IN MODEL GWF_1            PACKAGE GWF_1           CONNECTED TO MODEL GWF_1            PACKAGE RCH_MSW          ON UNIT   1016 AT TIME STEP      1, STRESS PERIOD      4

 HEAD WILL BE SAVED ON UNIT 1017 AT END OF TIME STEP    1, STRESS PERIOD    4


  VOLUME BUDGET FOR ENTIRE MODEL AT END OF TIME STEP    1, STRESS PERIOD   4
  ---------------------------------------------------------------------------------------------------

     CUMULATIVE VOLUME      L**3       RATES FOR THIS TIME STEP      L**3/T          PACKAGE NAME    
     ------------------                 ------------------------                     ----------------

           IN:                                      IN:
           ---                                      ---
              STO-SS =           0.0000                STO-SS =           0.0000     STORAGE                          
                 RIV =           0.0000                   RIV =           0.0000     RIV-1                            
                 RCH =        5331.5015                   RCH =         927.7436     RCH_MSW                          

            TOTAL IN =        5331.5015              TOTAL IN =         927.7436

          OUT:                                     OUT:
          ----                                     ----
              STO-SS =        5331.5015                STO-SS =         927.7436     STORAGE                          
                 RIV =           0.0000                   RIV =           0.0000     RIV-1                            
                 RCH =           0.0000                   RCH =           0.0000     RCH_MSW                          

           TOTAL OUT =        5331.5015             TOTAL OUT =         927.7436

            IN - OUT =       2.8022E-09              IN - OUT =       9.4758E-10

 PERCENT DISCREPANCY =           0.00     PERCENT DISCREPANCY =           0.00




         TIME SUMMARY AT END OF TIME STEP    1 IN STRESS PERIOD    4
                    SECONDS     MINUTES      HOURS       DAYS        YEARS
                    -----------------------------------------------------------
   TIME STEP LENGTH  86400.      1440.0      24.000      1.0000     2.73785E-03
 STRESS PERIOD TIME  86400.      1440.0      24.000      1.0000     2.73785E-03
         TOTAL TIME 3.45600E+05  5760.0      96.000      4.0000     1.09514E-02


end timestep


start timestep kper="5" kstp="1" mode="normal"


 OUTPUT CONTROL FOR STRESS PERIOD 5 IS REPEATED USING SETTINGS FROM A PREVIOUS STRESS PERIOD.


 STRESS PERIOD 5 IS TRANSIENT

 UBDSV1 SAVING     FLOW-JA-FACE ON UNIT   1016 AT TIME STEP      1, STRESS PERIOD      5
 UBDSV06 SAVING              RIV IN MODEL GWF_1            PACKAGE GWF_1           CONNECTED TO MODEL GWF_1            PACKAGE RIV-1            ON UNIT   1016 AT TIME STEP      1, STRESS PERIOD      5
 UBDSV06 SAVING              RCH IN MODEL GWF_1            PACKAGE GWF_1           CONNECTED TO MODEL GWF_1            PACKAGE RCH_MSW          ON UNIT   1016 AT TIME STEP      1, STRESS PERIOD      5

 HEAD WILL BE SAVED ON UNIT 1017 AT END OF TIME STEP    1, STRESS PERIOD    5


  VOLUME BUDGET FOR ENTIRE MODEL AT END OF TIME STEP    1, STRESS PERIOD   5
  ---------------------------------------------------------------------------------------------------

     CUMULATIVE VOLUME      L**3       RATES FOR THIS TIME STEP      L**3/T          PACKAGE NAME    
     ------------------                 ------------------------                     ----------------

           IN:                                      IN:
           ---                                      ---
              STO-SS =           0.0000                STO-SS =           0.0000     STORAGE                          
                 RIV =           0.0000                   RIV =           0.0000     RIV-1                            
                 RCH =        6101.6817                   RCH =         770.1802     RCH_MSW                          

            TOTAL IN =        6101.6817              TOTAL IN =         770.1802

          OUT:                                     OUT:
          ----                                     ----
              STO-SS =        6101.6817                STO-SS =         770.1802     STORAGE                          
                 RIV =           0.0000                   RIV =           0.0000     RIV-1                            
                 RCH =           0.0000                   RCH =           0.0000     RCH_MSW                          

           TOTAL OUT =        6101.6817             TOTAL OUT =         770.1802

            IN - OUT =       1.4024E-09              IN - OUT =      -1.3995E-09

 PERCENT DISCREPANCY =           0.00     PERCENT DISCREPANCY =          -0.00




         TIME SUMMARY AT END OF TIME STEP    1 IN STRESS PERIOD    5
                    SECONDS     MINUTES      HOURS       DAYS        YEARS
                    -----------------------------------------------------------
   TIME STEP LENGTH  86400.      1440.0      24.000      1.0000     2.73785E-03
 STRESS PERIOD TIME  86400.      1440.0      24.000      1.0000     2.73785E-03
         TOTAL TIME 4.32000E+05  7200.0      120.00      5.0000     1.36893E-02


end timestep


start timestep kper="6" kstp="1" mode="normal"


 OUTPUT CONTROL FOR STRESS PERIOD 6 IS REPEATED USING SETTINGS FROM A PREVIOUS STRESS PERIOD.


 STRESS PERIOD 6 IS TRANSIENT

 UBDSV1 SAVING     FLOW-JA-FACE ON UNIT   1016 AT TIME STEP      1, STRESS PERIOD      6
 UBDSV06 SAVING              RIV IN MODEL GWF_1            PACKAGE GWF_1           CONNECTED TO MODEL GWF_1            PACKAGE RIV-1            ON UNIT   1016 AT TIME STEP      1, STRESS PERIOD      6
 UBDSV06 SAVING              RCH IN MODEL GWF_1            PACKAGE GWF_1           CONNECTED TO MODEL GWF_1            PACKAGE RCH_MSW          ON UNIT   1016 AT TIME STEP      1, STRESS PERIOD      6

 HEAD WILL BE SAVED ON UNIT 1017 AT END OF TIME STEP    1, STRESS PERIOD    6


  VOLUME BUDGET FOR ENTIRE MODEL AT END OF TIME STEP    1, STRESS PERIOD   6
  ---------------------------------------------------------------------------------------------------

     CUMULATIVE VOLUME      L**3       RATES FOR THIS TIME STEP      L**3/T          PACKAGE NAME    
     ------------------                 ------------------------                     ----------------

           IN:                                      IN:
           ---                                      ---
              STO-SS =           0.0000                STO-SS =           0.0000     STORAGE                          
                 RIV =           0.0000                   RIV =           0.0000     RIV-1                            
                 RCH =        6756.4291                   RCH =         654.7475     RCH_MSW                          

            TOTAL IN =        6756.4291              TOTAL IN =         654.7475

          OUT:                                     OUT:
          ----                                     ----
              STO-SS =        6756.4291                STO-SS =         654.7475     STORAGE                          
                 RIV =           0.0000                   RIV =           0.0000     RIV-1                            
                 RCH =           0.0000                   RCH =           0.0000     RCH_MSW                          

           TOTAL OUT =        6756.4291             TOTAL OUT =         654.7475

            IN - OUT =       3.4670E-09              IN - OUT =       2.0648E-09

 PERCENT DISCREPANCY =           0.00     PERCENT DISCREPANCY =           0.00




         TIME SUMMARY AT END OF TIME STEP    1 IN STRESS PERIOD    6
                    SECONDS     MINUTES      HOURS       DAYS        YEARS
                    -----------------------------------------------------------
   TIME STEP LENGTH  86400.      1440.0      24.000      1.0000     2.73785E-03
 STRESS PERIOD TIME  86400.      1440.0      24.000      1.0000     2.73785E-03
         TOTAL TIME 5.18400E+05  8640.0      144.00      6.0000     1.64271E-02


end timestep


start timestep kper="7" kstp="1" mode="normal"


 OUTPUT CONTROL FOR STRESS PERIOD 7 IS REPEATED USING SETTINGS FROM A PREVIOUS STRESS PERIOD.


 STRESS PERIOD 7 IS TRANSIENT

 UBDSV1 SAVING     FLOW-JA-FACE ON UNIT   1016 AT TIME STEP      1, STRESS PERIOD      7
 UBDSV06 SAVING              RIV IN MODEL GWF_1            PACKAGE GWF_1           CONNECTED TO MODEL GWF_1            PACKAGE RIV-1            ON UNIT   1016 AT TIME STEP      1, STRESS PERIOD      7
 UBDSV06 SAVING              RCH IN MODEL GWF_1            PACKAGE GWF_1           CONNECTED TO MODEL GWF_1            PACKAGE RCH_MSW          ON UNIT   1016 AT TIME STEP      1, STRESS PERIOD      7

 HEAD WILL BE SAVED ON UNIT 1017 AT END OF TIME STEP    1, STRESS PERIOD    7


  VOLUME BUDGET FOR ENTIRE MODEL AT END OF TIME STEP    1, STRESS PERIOD   7
  ---------------------------------------------------------------------------------------------------

     CUMULATIVE VOLUME      L**3       RATES FOR THIS TIME STEP      L**3/T          PACKAGE NAME    
     ------------------                 ------------------------                     ----------------

           IN:                                      IN:
           ---                                      ---
              STO-SS =           0.0000                STO-SS =           0.0000     STORAGE                          
                 RIV =           0.0000                   RIV =           0.0000     RIV-1                            
                 RCH =        7322.0520                   RCH =         565.6229     RCH_MSW                          

            TOTAL IN =        7322.0520              TOTAL IN =         565.6229

          OUT:                                     OUT:
          ----                                     ----
              STO-SS =        7322.0520                STO-SS =         565.6229     STORAGE                          
                 RIV =           0.0000                   RIV =           0.0000     RIV-1                            
                 RCH =           0.0000                   RCH =           0.0000     RCH_MSW                          

           TOTAL OUT =        7322.0520             TOTAL OUT =         565.6229

            IN - OUT =       2.8822E-09              IN - OUT =      -5.8446E-10

 PERCENT DISCREPANCY =           0.00     PERCENT DISCREPANCY =          -0.00




         TIME SUMMARY AT END OF TIME STEP    1 IN STRESS PERIOD    7
                    SECONDS     MINUTES      HOURS       DAYS        YEARS
                    -----------------------------------------------------------
   TIME STEP LENGTH  86400.      1440.0      24.000      1.0000     2.73785E-03
 STRESS PERIOD TIME  86400.      1440.0      24.000      1.0000     2.73785E-03
         TOTAL TIME 6.04800E+05  10080.      168.00      7.0000     1.91650E-02


end timestep


start timestep kper="8" kstp="1" mode="normal"


 OUTPUT CONTROL FOR STRESS PERIOD 8 IS REPEATED USING SETTINGS FROM A PREVIOUS STRESS PERIOD.


 STRESS PERIOD 8 IS TRANSIENT

 UBDSV1 SAVING     FLOW-JA-FACE ON UNIT   1016 AT TIME STEP      1, STRESS PERIOD      8
 UBDSV06 SAVING              RIV IN MODEL GWF_1            PACKAGE GWF_1           CONNECTED TO MODEL GWF_1            PACKAGE RIV-1            ON UNIT   1016 AT TIME STEP      1, STRESS PERIOD      8
 UBDSV06 SAVING              RCH IN MODEL GWF_1            PACKAGE GWF_1           CONNECTED TO MODEL GWF_1            PACKAGE RCH_MSW          ON UNIT   1016 AT TIME STEP      1, STRESS PERIOD      8

 HEAD WILL BE SAVED ON UNIT 1017 AT END OF TIME STEP    1, STRESS PERIOD    8


  VOLUME BUDGET FOR ENTIRE MODEL AT END OF TIME STEP    1, STRESS PERIOD   8
  ---------------------------------------------------------------------------------------------------

     CUMULATIVE VOLUME      L**3       RATES FOR THIS TIME STEP      L**3/T          PACKAGE NAME    
     ------------------                 ------------------------                     ----------------

           IN:                                      IN:
           ---                                      ---
              STO-SS =           0.0000                STO-SS =           0.0000     STORAGE                          
                 RIV =           0.0000                   RIV =           0.0000     RIV-1                            
                 RCH =        7825.3239                   RCH =         503.2719     RCH_MSW                          

            TOTAL IN =        7825.3239              TOTAL IN =         503.2719

          OUT:                                     OUT:
          ----                                     ----
              STO-SS =        7825.3239                STO-SS =         503.2719     STORAGE                          
                 RIV =           0.0000                   RIV =           0.0000     RIV-1                            
                 RCH =           0.0000                   RCH =           0.0000     RCH_MSW                          

           TOTAL OUT =        7825.3239             TOTAL OUT =         503.2719

            IN - OUT =       4.7576E-09              IN - OUT =       1.8755E-09

 PERCENT DISCREPANCY =           0.00     PERCENT DISCREPANCY =           0.00




         TIME SUMMARY AT END OF TIME STEP    1 IN STRESS PERIOD    8
                    SECONDS     MINUTES      HOURS       DAYS        YEARS
                    -----------------------------------------------------------
   TIME STEP LENGTH  86400.      1440.0      24.000      1.0000     2.73785E-03
 STRESS PERIOD TIME  86400.      1440.0      24.000      1.0000     2.73785E-03
         TOTAL TIME 6.91200E+05  11520.      192.00      8.0000     2.19028E-02


end timestep


start timestep kper="9" kstp="1" mode="normal"


 OUTPUT CONTROL FOR STRESS PERIOD 9 IS REPEATED USING SETTINGS FROM A PREVIOUS STRESS PERIOD.


 STRESS PERIOD 9 IS TRANSIENT

 UBDSV1 SAVING     FLOW-JA-FACE ON UNIT   1016 AT TIME STEP      1, STRESS PERIOD      9
 UBDSV06 SAVING              RIV IN MODEL GWF_1            PACKAGE GWF_1           CONNECTED TO MODEL GWF_1            PACKAGE RIV-1            ON UNIT   1016 AT TIME STEP      1, STRESS PERIOD      9
 UBDSV06 SAVING              RCH IN MODEL GWF_1            PACKAGE GWF_1           CONNECTED TO MODEL GWF_1            PACKAGE RCH_MSW          ON UNIT   1016 AT TIME STEP      1, STRESS PERIOD      9

 HEAD WILL BE SAVED ON UNIT 1017 AT END OF TIME STEP    1, STRESS PERIOD    9


  VOLUME BUDGET FOR ENTIRE MODEL AT END OF TIME STEP    1, STRESS PERIOD   9
  ---------------------------------------------------------------------------------------------------

     CUMULATIVE VOLUME      L**3       RATES FOR THIS TIME STEP      L**3/T          PACKAGE NAME    
     ------------------                 ------------------------                     ----------------

           IN:                                      IN:
           ---                                      ---
              STO-SS =           0.0000                STO-SS =           0.0000     STORAGE                          
                 RIV =           0.0000                   RIV =           0.0000     RIV-1                            
                 RCH =        8277.4798                   RCH =         452.1559     RCH_MSW                          

            TOTAL IN =        8277.4798              TOTAL IN =         452.1559

          OUT:                                     OUT:
          ----                                     ----
              STO-SS =        8277.4798                STO-SS =         452.1559     STORAGE                          
                 RIV =           0.0000                   RIV =           0.0000     RIV-1                            
                 RCH =           0.0000                   RCH =           0.0000     RCH_MSW                          

           TOTAL OUT =        8277.4798             TOTAL OUT =         452.1559

            IN - OUT =       6.9449E-09              IN - OUT =       2.1864E-09

 PERCENT DISCREPANCY =           0.00     PERCENT DISCREPANCY =           0.00




         TIME SUMMARY AT END OF TIME STEP    1 IN STRESS PERIOD    9
                    SECONDS     MINUTES      HOURS       DAYS        YEARS
                    -----------------------------------------------------------
   TIME STEP LENGTH  86400.      1440.0      24.000      1.0000     2.73785E-03
 STRESS PERIOD TIME  86400.      1440.0      24.000      1.0000     2.73785E-03
         TOTAL TIME 7.77600E+05  12960.      216.00      9.0000     2.46407E-02


end timestep


start timestep kper="10" kstp="1" mode="normal"


 OUTPUT CONTROL FOR STRESS PERIOD 10 IS REPEATED USING SETTINGS FROM A PREVIOUS STRESS PERIOD.


 STRESS PERIOD 10 IS TRANSIENT

 UBDSV1 SAVING     FLOW-JA-FACE ON UNIT   1016 AT TIME STEP      1, STRESS PERIOD     10
 UBDSV06 SAVING              RIV IN MODEL GWF_1            PACKAGE GWF_1           CONNECTED TO MODEL GWF_1            PACKAGE RIV-1            ON UNIT   1016 AT TIME STEP      1, STRESS PERIOD     10
 UBDSV06 SAVING              RCH IN MODEL GWF_1            PACKAGE GWF_1           CONNECTED TO MODEL GWF_1            PACKAGE RCH_MSW          ON UNIT   1016 AT TIME STEP      1, STRESS PERIOD     10

 HEAD WILL BE SAVED ON UNIT 1017 AT END OF TIME STEP    1, STRESS PERIOD   10


  VOLUME BUDGET FOR ENTIRE MODEL AT END OF TIME STEP    1, STRESS PERIOD  10
  ---------------------------------------------------------------------------------------------------

     CUMULATIVE VOLUME      L**3       RATES FOR THIS TIME STEP      L**3/T          PACKAGE NAME    
     ------------------                 ------------------------                     ----------------

           IN:                                      IN:
           ---                                      ---
              STO-SS =           0.0000                STO-SS =           0.0000     STORAGE                          
                 RIV =           0.0000                   RIV =           0.0000     RIV-1                            
                 RCH =        8681.7030                   RCH =         404.2231     RCH_MSW                          

            TOTAL IN =        8681.7030              TOTAL IN =         404.2231

          OUT:                                     OUT:
          ----                                     ----
              STO-SS =        8681.7030                STO-SS =         404.2231     STORAGE                          
                 RIV =           0.0000                   RIV =           0.0000     RIV-1                            
                 RCH =           0.0000                   RCH =           0.0000     RCH_MSW                          

           TOTAL OUT =        8681.7030             TOTAL OUT =         404.2231

            IN - OUT =       6.5338E-09              IN - OUT =      -4.1075E-10

 PERCENT DISCREPANCY =           0.00     PERCENT DISCREPANCY =          -0.00




         TIME SUMMARY AT END OF TIME STEP    1 IN STRESS PERIOD   10
                    SECONDS     MINUTES      HOURS       DAYS        YEARS
                    -----------------------------------------------------------
   TIME STEP LENGTH  86400.      1440.0      24.000      1.0000     2.73785E-03
 STRESS PERIOD TIME  86400.      1440.0      24.000      1.0000     2.73785E-03
         TOTAL TIME 8.64000E+05  14400.      240.00      10.000     2.73785E-02


end timestep


start timestep kper="11" kstp="1" mode="normal"


 OUTPUT CONTROL FOR STRESS PERIOD 11 IS REPEATED USING SETTINGS FROM A PREVIOUS STRESS PERIOD.


 STRESS PERIOD 11 IS TRANSIENT

 UBDSV1 SAVING     FLOW-JA-FACE ON UNIT   1016 AT TIME STEP      1, STRESS PERIOD     11
 UBDSV06 SAVING              RIV IN MODEL GWF_1            PACKAGE GWF_1           CONNECTED TO MODEL GWF_1            PACKAGE RIV-1            ON UNIT   1016 AT TIME STEP      1, STRESS PERIOD     11
 UBDSV06 SAVING              RCH IN MODEL GWF_1            PACKAGE GWF_1           CONNECTED TO MODEL GWF_1            PACKAGE RCH_MSW          ON UNIT   1016 AT TIME STEP      1, STRESS PERIOD     11

 HEAD WILL BE SAVED ON UNIT 1017 AT END OF TIME STEP    1, STRESS PERIOD   11


  VOLUME BUDGET FOR ENTIRE MODEL AT END OF TIME STEP    1, STRESS PERIOD  11
  ---------------------------------------------------------------------------------------------------

     CUMULATIVE VOLUME      L**3       RATES FOR THIS TIME STEP      L**3/T          PACKAGE NAME    
     ------------------                 ------------------------                     ----------------

           IN:                                      IN:
           ---                                      ---
              STO-SS =           0.0000                STO-SS =           0.0000     STORAGE                          
                 RIV =           0.0000                   RIV =           0.0000     RIV-1                            
                 RCH =        9044.3868                   RCH =         362.6839     RCH_MSW                          

            TOTAL IN =        9044.3868              TOTAL IN =         362.6839

          OUT:                                     OUT:
          ----                                     ----
              STO-SS =        9044.3868                STO-SS =         362.6839     STORAGE                          
                 RIV =           0.0000                   RIV =           0.0000     RIV-1                            
                 RCH =           0.0000                   RCH =           0.0000     RCH_MSW                          

           TOTAL OUT =        9044.3868             TOTAL OUT =         362.6839

            IN - OUT =       5.7571E-09              IN - OUT =      -7.7659E-10

 PERCENT DISCREPANCY =           0.00     PERCENT DISCREPANCY =          -0.00




         TIME SUMMARY AT END OF TIME STEP    1 IN STRESS PERIOD   11
                    SECONDS     MINUTES      HOURS       DAYS        YEARS
                    -----------------------------------------------------------
   TIME STEP LENGTH  86400.      1440.0      24.000      1.0000     2.73785E-03
 STRESS PERIOD TIME  86400.      1440.0      24.000      1.0000     2.73785E-03
         TOTAL TIME 9.50400E+05  15840.      264.00      11.000     3.01164E-02


end timestep


start timestep kper="12" kstp="1" mode="normal"


 OUTPUT CONTROL FOR STRESS PERIOD 12 IS REPEATED USING SETTINGS FROM A PREVIOUS STRESS PERIOD.


 STRESS PERIOD 12 IS TRANSIENT

 UBDSV1 SAVING     FLOW-JA-FACE ON UNIT   1016 AT TIME STEP      1, STRESS PERIOD     12
 UBDSV06 SAVING              RIV IN MODEL GWF_1            PACKAGE GWF_1           CONNECTED TO MODEL GWF_1            PACKAGE RIV-1            ON UNIT   1016 AT TIME STEP      1, STRESS PERIOD     12
 UBDSV06 SAVING              RCH IN MODEL GWF_1            PACKAGE GWF_1           CONNECTED TO MODEL GWF_1            PACKAGE RCH_MSW          ON UNIT   1016 AT TIME STEP      1, STRESS PERIOD     12

 HEAD WILL BE SAVED ON UNIT 1017 AT END OF TIME STEP    1, STRESS PERIOD   12


  VOLUME BUDGET FOR ENTIRE MODEL AT END OF TIME STEP    1, STRESS PERIOD  12
  ---------------------------------------------------------------------------------------------------

     CUMULATIVE VOLUME      L**3       RATES FOR THIS TIME STEP      L**3/T          PACKAGE NAME    
     ------------------                 ------------------------                     ----------------

           IN:                                      IN:
           ---                                      ---
              STO-SS =           0.0000                STO-SS =           0.0000     STORAGE                          
                 RIV =           0.0000                   RIV =           0.0000     RIV-1                            
                 RCH =        9375.2128                   RCH =         330.8259     RCH_MSW                          

            TOTAL IN =        9375.2128              TOTAL IN =         330.8259

          OUT:                                     OUT:
          ----                                     ----
              STO-SS =        9375.2128                STO-SS =         330.8259     STORAGE                          
                 RIV =           0.0000                   RIV =           0.0000     RIV-1                            
                 RCH =           0.0000                   RCH =           0.0000     RCH_MSW                          

           TOTAL OUT =        9375.2128             TOTAL OUT =         330.8259

            IN - OUT =       5.8299E-09              IN - OUT =       7.2134E-11

 PERCENT DISCREPANCY =           0.00     PERCENT DISCREPANCY =           0.00




         TIME SUMMARY AT END OF TIME STEP    1 IN STRESS PERIOD   12
                    SECONDS     MINUTES      HOURS       DAYS        YEARS
                    -----------------------------------------------------------
   TIME STEP LENGTH  86400.      1440.0      24.000      1.0000     2.73785E-03
 STRESS PERIOD TIME  86400.      1440.0      24.000      1.0000     2.73785E-03
         TOTAL TIME 1.03680E+06  17280.      288.00      12.000     3.28542E-02


end timestep


start timestep kper="13" kstp="1" mode="normal"


 OUTPUT CONTROL FOR STRESS PERIOD 13 IS REPEATED USING SETTINGS FROM A PREVIOUS STRESS PERIOD.


 STRESS PERIOD 13 IS TRANSIENT

 UBDSV1 SAVING     FLOW-JA-FACE ON UNIT   1016 AT TIME STEP      1, STRESS PERIOD     13
 UBDSV06 SAVING              RIV IN MODEL GWF_1            PACKAGE GWF_1           CONNECTED TO MODEL GWF_1            PACKAGE RIV-1            ON UNIT   1016 AT TIME STEP      1, STRESS PERIOD     13
 UBDSV06 SAVING              RCH IN MODEL GWF_1            PACKAGE GWF_1           CONNECTED TO MODEL GWF_1            PACKAGE RCH_MSW          ON UNIT   1016 AT TIME STEP      1, STRESS PERIOD     13

 HEAD WILL BE SAVED ON UNIT 1017 AT END OF TIME STEP    1, STRESS PERIOD   13


  VOLUME BUDGET FOR ENTIRE MODEL AT END OF TIME STEP    1, STRESS PERIOD  13
  ---------------------------------------------------------------------------------------------------

     CUMULATIVE VOLUME      L**3       RATES FOR THIS TIME STEP      L**3/T          PACKAGE NAME    
     ------------------                 ------------------------                     ----------------

           IN:                                      IN:
           ---                                      ---
              STO-SS =           0.0000                STO-SS =           0.0000     STORAGE                          
                 RIV =           0.0000                   RIV =           0.0000     RIV-1                            
                 RCH =        9680.3679                   RCH =         305.1551     RCH_MSW                          

            TOTAL IN =        9680.3679              TOTAL IN =         305.1551

          OUT:                                     OUT:
          ----                                     ----
              STO-SS =        9680.3679                STO-SS =         305.1551     STORAGE                          
                 RIV =           0.0000                   RIV =           0.0000     RIV-1                            
                 RCH =           0.0000                   RCH =           0.0000     RCH_MSW                          

           TOTAL OUT =        9680.3679             TOTAL OUT =         305.1551

            IN - OUT =       5.7098E-09              IN - OUT =      -1.1983E-10

 PERCENT DISCREPANCY =           0.00     PERCENT DISCREPANCY =          -0.00




         TIME SUMMARY AT END OF TIME STEP    1 IN STRESS PERIOD   13
                    SECONDS     MINUTES      HOURS       DAYS        YEARS
                    -----------------------------------------------------------
   TIME STEP LENGTH  86400.      1440.0      24.000      1.0000     2.73785E-03
 STRESS PERIOD TIME  86400.      1440.0      24.000      1.0000     2.73785E-03
         TOTAL TIME 1.12320E+06  18720.      312.00      13.000     3.55921E-02


end timestep


start timestep kper="14" kstp="1" mode="normal"


 OUTPUT CONTROL FOR STRESS PERIOD 14 IS REPEATED USING SETTINGS FROM A PREVIOUS STRESS PERIOD.


 STRESS PERIOD 14 IS TRANSIENT

 UBDSV1 SAVING     FLOW-JA-FACE ON UNIT   1016 AT TIME STEP      1, STRESS PERIOD     14
 UBDSV06 SAVING              RIV IN MODEL GWF_1            PACKAGE GWF_1           CONNECTED TO MODEL GWF_1            PACKAGE RIV-1            ON UNIT   1016 AT TIME STEP      1, STRESS PERIOD     14
 UBDSV06 SAVING              RCH IN MODEL GWF_1            PACKAGE GWF_1           CONNECTED TO MODEL GWF_1            PACKAGE RCH_MSW          ON UNIT   1016 AT TIME STEP      1, STRESS PERIOD     14

 HEAD WILL BE SAVED ON UNIT 1017 AT END OF TIME STEP    1, STRESS PERIOD   14


  VOLUME BUDGET FOR ENTIRE MODEL AT END OF TIME STEP    1, STRESS PERIOD  14
  ---------------------------------------------------------------------------------------------------

     CUMULATIVE VOLUME      L**3       RATES FOR THIS TIME STEP      L**3/T          PACKAGE NAME    
     ------------------                 ------------------------                     ----------------

           IN:                                      IN:
           ---                                      ---
              STO-SS =           0.0000                STO-SS =           0.0000     STORAGE                          
                 RIV =           0.0000                   RIV =           0.0000     RIV-1                            
                 RCH =        9961.1789                   RCH =         280.8111     RCH_MSW                          

            TOTAL IN =        9961.1789              TOTAL IN =         280.8111

          OUT:                                     OUT:
          ----                                     ----
              STO-SS =        9961.1789                STO-SS =         280.8111     STORAGE                          
                 RIV =           0.0000                   RIV =           0.0000     RIV-1                            
                 RCH =           0.0000                   RCH =           0.0000     RCH_MSW                          

           TOTAL OUT =        9961.1789             TOTAL OUT =         280.8111

            IN - OUT =       6.6557E-09              IN - OUT =       9.4502E-10

 PERCENT DISCREPANCY =           0.00     PERCENT DISCREPANCY =           0.00




         TIME SUMMARY AT END OF TIME STEP    1 IN STRESS PERIOD   14
                    SECONDS     MINUTES      HOURS       DAYS        YEARS
                    -----------------------------------------------------------
   TIME STEP LENGTH  86400.      1440.0      24.000      1.0000     2.73785E-03
 STRESS PERIOD TIME  86400.      1440.0      24.000      1.0000     2.73785E-03
         TOTAL TIME 1.20960E+06  20160.      336.00      14.000     3.83299E-02


end timestep


start timestep kper="15" kstp="1" mode="normal"


 OUTPUT CONTROL FOR STRESS PERIOD 15 IS REPEATED USING SETTINGS FROM A PREVIOUS STRESS PERIOD.


 STRESS PERIOD 15 IS TRANSIENT

 UBDSV1 SAVING     FLOW-JA-FACE ON UNIT   1016 AT TIME STEP      1, STRESS PERIOD     15
 UBDSV06 SAVING              RIV IN MODEL GWF_1            PACKAGE GWF_1           CONNECTED TO MODEL GWF_1            PACKAGE RIV-1            ON UNIT   1016 AT TIME STEP      1, STRESS PERIOD     15
 UBDSV06 SAVING              RCH IN MODEL GWF_1            PACKAGE GWF_1           CONNECTED TO MODEL GWF_1            PACKAGE RCH_MSW          ON UNIT   1016 AT TIME STEP      1, STRESS PERIOD     15

 HEAD WILL BE SAVED ON UNIT 1017 AT END OF TIME STEP    1, STRESS PERIOD   15


  VOLUME BUDGET FOR ENTIRE MODEL AT END OF TIME STEP    1, STRESS PERIOD  15
  ---------------------------------------------------------------------------------------------------

     CUMULATIVE VOLUME      L**3       RATES FOR THIS TIME STEP      L**3/T          PACKAGE NAME    
     ------------------                 ------------------------                     ----------------

           IN:                                      IN:
           ---                                      ---
              STO-SS =           0.0000                STO-SS =           0.0000     STORAGE                          
                 RIV =           0.0000                   RIV =           0.0000     RIV-1                            
                 RCH =       10219.7705                   RCH =         258.5916     RCH_MSW                          

            TOTAL IN =       10219.7705              TOTAL IN =         258.5916

          OUT:                                     OUT:
          ----                                     ----
              STO-SS =       10219.7705                STO-SS =         258.5916     STORAGE                          
                 RIV =           0.0000                   RIV =           0.0000     RIV-1                            
                 RCH =           0.0000                   RCH =           0.0000     RCH_MSW                          

           TOTAL OUT =       10219.7705             TOTAL OUT =         258.5916

            IN - OUT =       6.8303E-09              IN - OUT =       1.7440E-10

 PERCENT DISCREPANCY =           0.00     PERCENT DISCREPANCY =           0.00




         TIME SUMMARY AT END OF TIME STEP    1 IN STRESS PERIOD   15
                    SECONDS     MINUTES      HOURS       DAYS        YEARS
                    -----------------------------------------------------------
   TIME STEP LENGTH  86400.      1440.0      24.000      1.0000     2.73785E-03
 STRESS PERIOD TIME  86400.      1440.0      24.000      1.0000     2.73785E-03
         TOTAL TIME 1.29600E+06  21600.      360.00      15.000     4.10678E-02


end timestep


start timestep kper="16" kstp="1" mode="normal"


 OUTPUT CONTROL FOR STRESS PERIOD 16 IS REPEATED USING SETTINGS FROM A PREVIOUS STRESS PERIOD.


 STRESS PERIOD 16 IS TRANSIENT

 UBDSV1 SAVING     FLOW-JA-FACE ON UNIT   1016 AT TIME STEP      1, STRESS PERIOD     16
 UBDSV06 SAVING              RIV IN MODEL GWF_1            PACKAGE GWF_1           CONNECTED TO MODEL GWF_1            PACKAGE RIV-1            ON UNIT   1016 AT TIME STEP      1, STRESS PERIOD     16
 UBDSV06 SAVING              RCH IN MODEL GWF_1            PACKAGE GWF_1           CONNECTED TO MODEL GWF_1            PACKAGE RCH_MSW          ON UNIT   1016 AT TIME STEP      1, STRESS PERIOD     16

 HEAD WILL BE SAVED ON UNIT 1017 AT END OF TIME STEP    1, STRESS PERIOD   16


  VOLUME BUDGET FOR ENTIRE MODEL AT END OF TIME STEP    1, STRESS PERIOD  16
  ---------------------------------------------------------------------------------------------------

     CUMULATIVE VOLUME      L**3       RATES FOR THIS TIME STEP      L**3/T          PACKAGE NAME    
     ------------------                 ------------------------                     ----------------

           IN:                                      IN:
           ---                                      ---
              STO-SS =           0.0000                STO-SS =           0.0000     STORAGE                          
                 RIV =           0.0000                   RIV =           0.0000     RIV-1                            
                 RCH =       10458.8362                   RCH =         239.0657     RCH_MSW                          

            TOTAL IN =       10458.8362              TOTAL IN =         239.0657

          OUT:                                     OUT:
          ----                                     ----
              STO-SS =       10458.8362                STO-SS =         239.0657     STORAGE                          
                 RIV =           0.0000                   RIV =           0.0000     RIV-1                            
                 RCH =           0.0000                   RCH =           0.0000     RCH_MSW                          

           TOTAL OUT =       10458.8362             TOTAL OUT =         239.0657

            IN - OUT =       8.0872E-09              IN - OUT =       1.2562E-09

 PERCENT DISCREPANCY =           0.00     PERCENT DISCREPANCY =           0.00




         TIME SUMMARY AT END OF TIME STEP    1 IN STRESS PERIOD   16
                    SECONDS     MINUTES      HOURS       DAYS        YEARS
                    -----------------------------------------------------------
   TIME STEP LENGTH  86400.      1440.0      24.000      1.0000     2.73785E-03
 STRESS PERIOD TIME  86400.      1440.0      24.000      1.0000     2.73785E-03
         TOTAL TIME 1.38240E+06  23040.      384.00      16.000     4.38056E-02


end timestep


start timestep kper="17" kstp="1" mode="normal"


 OUTPUT CONTROL FOR STRESS PERIOD 17 IS REPEATED USING SETTINGS FROM A PREVIOUS STRESS PERIOD.


 STRESS PERIOD 17 IS TRANSIENT

 UBDSV1 SAVING     FLOW-JA-FACE ON UNIT   1016 AT TIME STEP      1, STRESS PERIOD     17
 UBDSV06 SAVING              RIV IN MODEL GWF_1            PACKAGE GWF_1           CONNECTED TO MODEL GWF_1            PACKAGE RIV-1            ON UNIT   1016 AT TIME STEP      1, STRESS PERIOD     17
 UBDSV06 SAVING              RCH IN MODEL GWF_1            PACKAGE GWF_1           CONNECTED TO MODEL GWF_1            PACKAGE RCH_MSW          ON UNIT   1016 AT TIME STEP      1, STRESS PERIOD     17

 HEAD WILL BE SAVED ON UNIT 1017 AT END OF TIME STEP    1, STRESS PERIOD   17


  VOLUME BUDGET FOR ENTIRE MODEL AT END OF TIME STEP    1, STRESS PERIOD  17
  ---------------------------------------------------------------------------------------------------

     CUMULATIVE VOLUME      L**3       RATES FOR THIS TIME STEP      L**3/T          PACKAGE NAME    
     ------------------                 ------------------------                     ----------------

           IN:                                      IN:
           ---                                      ---
              STO-SS =           0.0000                STO-SS =           0.0000     STORAGE                          
                 RIV =           0.0000                   RIV =           0.0000     RIV-1                            
                 RCH =       10679.4711                   RCH =         220.6350     RCH_MSW                          

            TOTAL IN =       10679.4711              TOTAL IN =         220.6350

          OUT:                                     OUT:
          ----                                     ----
              STO-SS =       10679.4711                STO-SS =         220.6350     STORAGE                          
                 RIV =           0.0000                   RIV =           0.0000     RIV-1                            
                 RCH =           0.0000                   RCH =           0.0000     RCH_MSW                          

           TOTAL OUT =       10679.4711             TOTAL OUT =         220.6350

            IN - OUT =       9.1113E-09              IN - OUT =       1.0249E-09

 PERCENT DISCREPANCY =           0.00     PERCENT DISCREPANCY =           0.00




         TIME SUMMARY AT END OF TIME STEP    1 IN STRESS PERIOD   17
                    SECONDS     MINUTES      HOURS       DAYS        YEARS
                    -----------------------------------------------------------
   TIME STEP LENGTH  86400.      1440.0      24.000      1.0000     2.73785E-03
 STRESS PERIOD TIME  86400.      1440.0      24.000      1.0000     2.73785E-03
         TOTAL TIME 1.46880E+06  24480.      408.00      17.000     4.65435E-02


end timestep


start timestep kper="18" kstp="1" mode="normal"


 OUTPUT CONTROL FOR STRESS PERIOD 18 IS REPEATED USING SETTINGS FROM A PREVIOUS STRESS PERIOD.


 STRESS PERIOD 18 IS TRANSIENT

 UBDSV1 SAVING     FLOW-JA-FACE ON UNIT   1016 AT TIME STEP      1, STRESS PERIOD     18
 UBDSV06 SAVING              RIV IN MODEL GWF_1            PACKAGE GWF_1           CONNECTED TO MODEL GWF_1            PACKAGE RIV-1            ON UNIT   1016 AT TIME STEP      1, STRESS PERIOD     18
 UBDSV06 SAVING              RCH IN MODEL GWF_1            PACKAGE GWF_1           CONNECTED TO MODEL GWF_1            PACKAGE RCH_MSW          ON UNIT   1016 AT TIME STEP      1, STRESS PERIOD     18

 HEAD WILL BE SAVED ON UNIT 1017 AT END OF TIME STEP    1, STRESS PERIOD   18


  VOLUME BUDGET FOR ENTIRE MODEL AT END OF TIME STEP    1, STRESS PERIOD  18
  ---------------------------------------------------------------------------------------------------

     CUMULATIVE VOLUME      L**3       RATES FOR THIS TIME STEP      L**3/T          PACKAGE NAME    
     ------------------                 ------------------------                     ----------------

           IN:                                      IN:
           ---                                      ---
              STO-SS =           0.0000                STO-SS =           0.0000     STORAGE                          
                 RIV =           0.0000                   RIV =           0.0000     RIV-1                            
                 RCH =       10885.2976                   RCH =         205.8265     RCH_MSW                          

            TOTAL IN =       10885.2976              TOTAL IN =         205.8265

          OUT:                                     OUT:
          ----                                     ----
              STO-SS =       10885.2976                STO-SS =         205.8265     STORAGE                          
                 RIV =           0.0000                   RIV =           0.0000     RIV-1                            
                 RCH =           0.0000                   RCH =           0.0000     RCH_MSW                          

           TOTAL OUT =       10885.2976             TOTAL OUT =         205.8265

            IN - OUT =       1.0712E-08              IN - OUT =       1.5999E-09

 PERCENT DISCREPANCY =           0.00     PERCENT DISCREPANCY =           0.00




         TIME SUMMARY AT END OF TIME STEP    1 IN STRESS PERIOD   18
                    SECONDS     MINUTES      HOURS       DAYS        YEARS
                    -----------------------------------------------------------
   TIME STEP LENGTH  86400.      1440.0      24.000      1.0000     2.73785E-03
 STRESS PERIOD TIME  86400.      1440.0      24.000      1.0000     2.73785E-03
         TOTAL TIME 1.55520E+06  25920.      432.00      18.000     4.92813E-02


end timestep


start timestep kper="19" kstp="1" mode="normal"


 OUTPUT CONTROL FOR STRESS PERIOD 19 IS REPEATED USING SETTINGS FROM A PREVIOUS STRESS PERIOD.


 STRESS PERIOD 19 IS TRANSIENT

 UBDSV1 SAVING     FLOW-JA-FACE ON UNIT   1016 AT TIME STEP      1, STRESS PERIOD     19
 UBDSV06 SAVING              RIV IN MODEL GWF_1            PACKAGE GWF_1           CONNECTED TO MODEL GWF_1            PACKAGE RIV-1            ON UNIT   1016 AT TIME STEP      1, STRESS PERIOD     19
 UBDSV06 SAVING              RCH IN MODEL GWF_1            PACKAGE GWF_1           CONNECTED TO MODEL GWF_1            PACKAGE RCH_MSW          ON UNIT   1016 AT TIME STEP      1, STRESS PERIOD     19

 HEAD WILL BE SAVED ON UNIT 1017 AT END OF TIME STEP    1, STRESS PERIOD   19


  VOLUME BUDGET FOR ENTIRE MODEL AT END OF TIME STEP    1, STRESS PERIOD  19
  ---------------------------------------------------------------------------------------------------

     CUMULATIVE VOLUME      L**3       RATES FOR THIS TIME STEP      L**3/T          PACKAGE NAME    
     ------------------                 ------------------------                     ----------------

           IN:                                      IN:
           ---                                      ---
              STO-SS =           0.0000                STO-SS =           0.0000     STORAGE                          
                 RIV =           0.0000                   RIV =           0.0000     RIV-1                            
                 RCH =       11082.8896                   RCH =         197.5919     RCH_MSW                          

            TOTAL IN =       11082.8896              TOTAL IN =         197.5919

          OUT:                                     OUT:
          ----                                     ----
              STO-SS =       11082.8896                STO-SS =         197.5919     STORAGE                          
                 RIV =           0.0000                   RIV =           0.0000     RIV-1                            
                 RCH =           0.0000                   RCH =           0.0000     RCH_MSW                          

           TOTAL OUT =       11082.8896             TOTAL OUT =         197.5919

            IN - OUT =       9.0076E-09              IN - OUT =      -1.7045E-09

 PERCENT DISCREPANCY =           0.00     PERCENT DISCREPANCY =          -0.00




         TIME SUMMARY AT END OF TIME STEP    1 IN STRESS PERIOD   19
                    SECONDS     MINUTES      HOURS       DAYS        YEARS
                    -----------------------------------------------------------
   TIME STEP LENGTH  86400.      1440.0      24.000      1.0000     2.73785E-03
 STRESS PERIOD TIME  86400.      1440.0      24.000      1.0000     2.73785E-03
         TOTAL TIME 1.64160E+06  27360.      456.00      19.000     5.20192E-02


end timestep


start timestep kper="20" kstp="1" mode="normal"


 OUTPUT CONTROL FOR STRESS PERIOD 20 IS REPEATED USING SETTINGS FROM A PREVIOUS STRESS PERIOD.


 STRESS PERIOD 20 IS TRANSIENT

 UBDSV1 SAVING     FLOW-JA-FACE ON UNIT   1016 AT TIME STEP      1, STRESS PERIOD     20
 UBDSV06 SAVING              RIV IN MODEL GWF_1            PACKAGE GWF_1           CONNECTED TO MODEL GWF_1            PACKAGE RIV-1            ON UNIT   1016 AT TIME STEP      1, STRESS PERIOD     20
 UBDSV06 SAVING              RCH IN MODEL GWF_1            PACKAGE GWF_1           CONNECTED TO MODEL GWF_1            PACKAGE RCH_MSW          ON UNIT   1016 AT TIME STEP      1, STRESS PERIOD     20

 HEAD WILL BE SAVED ON UNIT 1017 AT END OF TIME STEP    1, STRESS PERIOD   20


  VOLUME BUDGET FOR ENTIRE MODEL AT END OF TIME STEP    1, STRESS PERIOD  20
  ---------------------------------------------------------------------------------------------------

     CUMULATIVE VOLUME      L**3       RATES FOR THIS TIME STEP      L**3/T          PACKAGE NAME    
     ------------------                 ------------------------                     ----------------

           IN:                                      IN:
           ---                                      ---
              STO-SS =           0.0000                STO-SS =           0.0000     STORAGE                          
                 RIV =           0.0000                   RIV =           0.0000     RIV-1                            
                 RCH =       11271.3828                   RCH =         188.4933     RCH_MSW                          

            TOTAL IN =       11271.3828              TOTAL IN =         188.4933

          OUT:                                     OUT:
          ----                                     ----
              STO-SS =       11271.3828                STO-SS =         188.4933     STORAGE                          
                 RIV =           0.0000                   RIV =           0.0000     RIV-1                            
                 RCH =           0.0000                   RCH =           0.0000     RCH_MSW                          

           TOTAL OUT =       11271.3828             TOTAL OUT =         188.4933

            IN - OUT =       7.5470E-09              IN - OUT =      -1.4604E-09

 PERCENT DISCREPANCY =           0.00     PERCENT DISCREPANCY =          -0.00




         TIME SUMMARY AT END OF TIME STEP    1 IN STRESS PERIOD   20
                    SECONDS     MINUTES      HOURS       DAYS        YEARS
                    -----------------------------------------------------------
   TIME STEP LENGTH  86400.      1440.0      24.000      1.0000     2.73785E-03
 STRESS PERIOD TIME  86400.      1440.0      24.000      1.0000     2.73785E-03
         TOTAL TIME 1.72800E+06  28800.      480.00      20.000     5.47570E-02


end timestep


start timestep kper="21" kstp="1" mode="normal"


 OUTPUT CONTROL FOR STRESS PERIOD 21 IS REPEATED USING SETTINGS FROM A PREVIOUS STRESS PERIOD.


 STRESS PERIOD 21 IS TRANSIENT

 UBDSV1 SAVING     FLOW-JA-FACE ON UNIT   1016 AT TIME STEP      1, STRESS PERIOD     21
 UBDSV06 SAVING              RIV IN MODEL GWF_1            PACKAGE GWF_1           CONNECTED TO MODEL GWF_1            PACKAGE RIV-1            ON UNIT   1016 AT TIME STEP      1, STRESS PERIOD     21
 UBDSV06 SAVING              RCH IN MODEL GWF_1            PACKAGE GWF_1           CONNECTED TO MODEL GWF_1            PACKAGE RCH_MSW          ON UNIT   1016 AT TIME STEP      1, STRESS PERIOD     21

 HEAD WILL BE SAVED ON UNIT 1017 AT END OF TIME STEP    1, STRESS PERIOD   21


  VOLUME BUDGET FOR ENTIRE MODEL AT END OF TIME STEP    1, STRESS PERIOD  21
  ---------------------------------------------------------------------------------------------------

     CUMULATIVE VOLUME      L**3       RATES FOR THIS TIME STEP      L**3/T          PACKAGE NAME    
     ------------------                 ------------------------                     ----------------

           IN:                                      IN:
           ---                                      ---
              STO-SS =           0.0000                STO-SS =           0.0000     STORAGE                          
                 RIV =           0.0000                   RIV =           0.0000     RIV-1                            
                 RCH =       11451.2438                   RCH =         179.8610     RCH_MSW                          

            TOTAL IN =       11451.2438              TOTAL IN =         179.8610

          OUT:                                     OUT:
          ----                                     ----
              STO-SS =       11451.2438                STO-SS =         179.8610     STORAGE                          
                 RIV =           0.0000                   RIV =           0.0000     RIV-1                            
                 RCH =           0.0000                   RCH =           0.0000     RCH_MSW                          

           TOTAL OUT =       11451.2438             TOTAL OUT =         179.8610

            IN - OUT =       8.7275E-09              IN - OUT =       1.1805E-09

 PERCENT DISCREPANCY =           0.00     PERCENT DISCREPANCY =           0.00




         TIME SUMMARY AT END OF TIME STEP    1 IN STRESS PERIOD   21
                    SECONDS     MINUTES      HOURS       DAYS        YEARS
                    -----------------------------------------------------------
   TIME STEP LENGTH  86400.      1440.0      24.000      1.0000     2.73785E-03
 STRESS PERIOD TIME  86400.      1440.0      24.000      1.0000     2.73785E-03
         TOTAL TIME 1.81440E+06  30240.      504.00      21.000     5.74949E-02


end timestep


start timestep kper="22" kstp="1" mode="normal"


 OUTPUT CONTROL FOR STRESS PERIOD 22 IS REPEATED USING SETTINGS FROM A PREVIOUS STRESS PERIOD.


 STRESS PERIOD 22 IS TRANSIENT

 UBDSV1 SAVING     FLOW-JA-FACE ON UNIT   1016 AT TIME STEP      1, STRESS PERIOD     22
 UBDSV06 SAVING              RIV IN MODEL GWF_1            PACKAGE GWF_1           CONNECTED TO MODEL GWF_1            PACKAGE RIV-1            ON UNIT   1016 AT TIME STEP      1, STRESS PERIOD     22
 UBDSV06 SAVING              RCH IN MODEL GWF_1            PACKAGE GWF_1           CONNECTED TO MODEL GWF_1            PACKAGE RCH_MSW          ON UNIT   1016 AT TIME STEP      1, STRESS PERIOD     22

 HEAD WILL BE SAVED ON UNIT 1017 AT END OF TIME STEP    1, STRESS PERIOD   22


  VOLUME BUDGET FOR ENTIRE MODEL AT END OF TIME STEP    1, STRESS PERIOD  22
  ---------------------------------------------------------------------------------------------------

     CUMULATIVE VOLUME      L**3       RATES FOR THIS TIME STEP      L**3/T          PACKAGE NAME    
     ------------------                 ------------------------                     ----------------

           IN:                                      IN:
           ---                                      ---
              STO-SS =           0.0000                STO-SS =           0.0000     STORAGE                          
                 RIV =           0.0000                   RIV =           0.0000     RIV-1                            
                 RCH =       11623.6688                   RCH =         172.4249     RCH_MSW                          

            TOTAL IN =       11623.6688              TOTAL IN =         172.4249

          OUT:                                     OUT:
          ----                                     ----
              STO-SS =       11623.6688                STO-SS =         172.4249     STORAGE                          
                 RIV =           0.0000                   RIV =           0.0000     RIV-1                            
                 RCH =           0.0000                   RCH =           0.0000     RCH_MSW                          

           TOTAL OUT =       11623.6688             TOTAL OUT =         172.4249

            IN - OUT =       8.2891E-09              IN - OUT =      -4.3923E-10

 PERCENT DISCREPANCY =           0.00     PERCENT DISCREPANCY =          -0.00




         TIME SUMMARY AT END OF TIME STEP    1 IN STRESS PERIOD   22
                    SECONDS     MINUTES      HOURS       DAYS        YEARS
                    -----------------------------------------------------------
   TIME STEP LENGTH  86400.      1440.0      24.000      1.0000     2.73785E-03
 STRESS PERIOD TIME  86400.      1440.0      24.000      1.0000     2.73785E-03
         TOTAL TIME 1.90080E+06  31680.      528.00      22.000     6.02327E-02


end timestep


start timestep kper="23" kstp="1" mode="normal"


 OUTPUT CONTROL FOR STRESS PERIOD 23 IS REPEATED USING SETTINGS FROM A PREVIOUS STRESS PERIOD.


 STRESS PERIOD 23 IS TRANSIENT

 UBDSV1 SAVING     FLOW-JA-FACE ON UNIT   1016 AT TIME STEP      1, STRESS PERIOD     23
 UBDSV06 SAVING              RIV IN MODEL GWF_1            PACKAGE GWF_1           CONNECTED TO MODEL GWF_1            PACKAGE RIV-1            ON UNIT   1016 AT TIME STEP      1, STRESS PERIOD     23
 UBDSV06 SAVING              RCH IN MODEL GWF_1            PACKAGE GWF_1           CONNECTED TO MODEL GWF_1            PACKAGE RCH_MSW          ON UNIT   1016 AT TIME STEP      1, STRESS PERIOD     23

 HEAD WILL BE SAVED ON UNIT 1017 AT END OF TIME STEP    1, STRESS PERIOD   23


  VOLUME BUDGET FOR ENTIRE MODEL AT END OF TIME STEP    1, STRESS PERIOD  23
  ---------------------------------------------------------------------------------------------------

     CUMULATIVE VOLUME      L**3       RATES FOR THIS TIME STEP      L**3/T          PACKAGE NAME    
     ------------------                 ------------------------                     ----------------

           IN:                                      IN:
           ---                                      ---
              STO-SS =           0.0000                STO-SS =           0.0000     STORAGE                          
                 RIV =           0.0000                   RIV =           0.0000     RIV-1                            
                 RCH =       11799.0028                   RCH =         175.3341     RCH_MSW                          

            TOTAL IN =       11799.0028              TOTAL IN =         175.3341

          OUT:                                     OUT:
          ----                                     ----
              STO-SS =       11799.0028                STO-SS =         175.3341     STORAGE                          
                 RIV =           0.0000                   RIV =           0.0000     RIV-1                            
                 RCH =           0.0000                   RCH =           0.0000     RCH_MSW                          

           TOTAL OUT =       11799.0028             TOTAL OUT =         175.3341

            IN - OUT =       8.2764E-09              IN - OUT =      -1.3102E-11

 PERCENT DISCREPANCY =           0.00     PERCENT DISCREPANCY =          -0.00




         TIME SUMMARY AT END OF TIME STEP    1 IN STRESS PERIOD   23
                    SECONDS     MINUTES      HOURS       DAYS        YEARS
                    -----------------------------------------------------------
   TIME STEP LENGTH  86400.      1440.0      24.000      1.0000     2.73785E-03
 STRESS PERIOD TIME  86400.      1440.0      24.000      1.0000     2.73785E-03
         TOTAL TIME 1.98720E+06  33120.      552.00      23.000     6.29706E-02


end timestep


start timestep kper="24" kstp="1" mode="normal"


 OUTPUT CONTROL FOR STRESS PERIOD 24 IS REPEATED USING SETTINGS FROM A PREVIOUS STRESS PERIOD.


 STRESS PERIOD 24 IS TRANSIENT

 UBDSV1 SAVING     FLOW-JA-FACE ON UNIT   1016 AT TIME STEP      1, STRESS PERIOD     24
 UBDSV06 SAVING              RIV IN MODEL GWF_1            PACKAGE GWF_1           CONNECTED TO MODEL GWF_1            PACKAGE RIV-1            ON UNIT   1016 AT TIME STEP      1, STRESS PERIOD     24
 UBDSV06 SAVING              RCH IN MODEL GWF_1            PACKAGE GWF_1           CONNECTED TO MODEL GWF_1            PACKAGE RCH_MSW          ON UNIT   1016 AT TIME STEP      1, STRESS PERIOD     24

 HEAD WILL BE SAVED ON UNIT 1017 AT END OF TIME STEP    1, STRESS PERIOD   24


  VOLUME BUDGET FOR ENTIRE MODEL AT END OF TIME STEP    1, STRESS PERIOD  24
  ---------------------------------------------------------------------------------------------------

     CUMULATIVE VOLUME      L**3       RATES FOR THIS TIME STEP      L**3/T          PACKAGE NAME    
     ------------------                 ------------------------                     ----------------

           IN:                                      IN:
           ---                                      ---
              STO-SS =           0.0000                STO-SS =           0.0000     STORAGE                          
                 RIV =           0.0000                   RIV =           0.0000     RIV-1                            
                 RCH =       11979.2797                   RCH =         180.2769     RCH_MSW                          

            TOTAL IN =       11979.2797              TOTAL IN =         180.2769

          OUT:                                     OUT:
          ----                                     ----
              STO-SS =       11979.2797                STO-SS =         180.2769     STORAGE                          
                 RIV =           0.0000                   RIV =           0.0000     RIV-1                            
                 RCH =           0.0000                   RCH =           0.0000     RCH_MSW                          

           TOTAL OUT =       11979.2797             TOTAL OUT =         180.2769

            IN - OUT =       7.4433E-09              IN - OUT =      -8.3395E-10

 PERCENT DISCREPANCY =           0.00     PERCENT DISCREPANCY =          -0.00




         TIME SUMMARY AT END OF TIME STEP    1 IN STRESS PERIOD   24
                    SECONDS     MINUTES      HOURS       DAYS        YEARS
                    -----------------------------------------------------------
   TIME STEP LENGTH  86400.      1440.0      24.000      1.0000     2.73785E-03
 STRESS PERIOD TIME  86400.      1440.0      24.000      1.0000     2.73785E-03
         TOTAL TIME 2.07360E+06  34560.      576.00      24.000     6.57084E-02


end timestep


start timestep kper="25" kstp="1" mode="normal"


 OUTPUT CONTROL FOR STRESS PERIOD 25 IS REPEATED USING SETTINGS FROM A PREVIOUS STRESS PERIOD.


 STRESS PERIOD 25 IS TRANSIENT

 UBDSV1 SAVING     FLOW-JA-FACE ON UNIT   1016 AT TIME STEP      1, STRESS PERIOD     25
 UBDSV06 SAVING              RIV IN MODEL GWF_1            PACKAGE GWF_1           CONNECTED TO MODEL GWF_1            PACKAGE RIV-1            ON UNIT   1016 AT TIME STEP      1, STRESS PERIOD     25
 UBDSV06 SAVING              RCH IN MODEL GWF_1            PACKAGE GWF_1           CONNECTED TO MODEL GWF_1            PACKAGE RCH_MSW          ON UNIT   1016 AT TIME STEP      1, STRESS PERIOD     25

 HEAD WILL BE SAVED ON UNIT 1017 AT END OF TIME STEP    1, STRESS PERIOD   25


  VOLUME BUDGET FOR ENTIRE MODEL AT END OF TIME STEP    1, STRESS PERIOD  25
  ---------------------------------------------------------------------------------------------------

     CUMULATIVE VOLUME      L**3       RATES FOR THIS TIME STEP      L**3/T          PACKAGE NAME    
     ------------------                 ------------------------                     ----------------

           IN:                                      IN:
           ---                                      ---
              STO-SS =           0.0000                STO-SS =           0.0000     STORAGE                          
                 RIV =           0.0000                   RIV =           0.0000     RIV-1                            
                 RCH =       12168.8144                   RCH =         189.5346     RCH_MSW                          

            TOTAL IN =       12168.8144              TOTAL IN =         189.5346

          OUT:                                     OUT:
          ----                                     ----
              STO-SS =       12168.8144                STO-SS =         189.5346     STORAGE                          
                 RIV =           0.0000                   RIV =           0.0000     RIV-1                            
                 RCH =           0.0000                   RCH =           0.0000     RCH_MSW                          

           TOTAL OUT =       12168.8144             TOTAL OUT =         189.5346

            IN - OUT =       9.9244E-09              IN - OUT =       2.4820E-09

 PERCENT DISCREPANCY =           0.00     PERCENT DISCREPANCY =           0.00




         TIME SUMMARY AT END OF TIME STEP    1 IN STRESS PERIOD   25
                    SECONDS     MINUTES      HOURS       DAYS        YEARS
                    -----------------------------------------------------------
   TIME STEP LENGTH  86400.      1440.0      24.000      1.0000     2.73785E-03
 STRESS PERIOD TIME  86400.      1440.0      24.000      1.0000     2.73785E-03
         TOTAL TIME 2.16000E+06  36000.      600.00      25.000     6.84463E-02


end timestep


start timestep kper="26" kstp="1" mode="normal"


 OUTPUT CONTROL FOR STRESS PERIOD 26 IS REPEATED USING SETTINGS FROM A PREVIOUS STRESS PERIOD.


 STRESS PERIOD 26 IS TRANSIENT

 UBDSV1 SAVING     FLOW-JA-FACE ON UNIT   1016 AT TIME STEP      1, STRESS PERIOD     26
 UBDSV06 SAVING              RIV IN MODEL GWF_1            PACKAGE GWF_1           CONNECTED TO MODEL GWF_1            PACKAGE RIV-1            ON UNIT   1016 AT TIME STEP      1, STRESS PERIOD     26
 UBDSV06 SAVING              RCH IN MODEL GWF_1            PACKAGE GWF_1           CONNECTED TO MODEL GWF_1            PACKAGE RCH_MSW          ON UNIT   1016 AT TIME STEP      1, STRESS PERIOD     26

 HEAD WILL BE SAVED ON UNIT 1017 AT END OF TIME STEP    1, STRESS PERIOD   26


  VOLUME BUDGET FOR ENTIRE MODEL AT END OF TIME STEP    1, STRESS PERIOD  26
  ---------------------------------------------------------------------------------------------------

     CUMULATIVE VOLUME      L**3       RATES FOR THIS TIME STEP      L**3/T          PACKAGE NAME    
     ------------------                 ------------------------                     ----------------

           IN:                                      IN:
           ---                                      ---
              STO-SS =           0.0000                STO-SS =           0.0000     STORAGE                          
                 RIV =           0.0000                   RIV =           0.0000     RIV-1                            
                 RCH =       12406.4703                   RCH =         237.6559     RCH_MSW                          

            TOTAL IN =       12406.4703              TOTAL IN =         237.6559

          OUT:                                     OUT:
          ----                                     ----
              STO-SS =       12406.4703                STO-SS =         237.6559     STORAGE                          
                 RIV =           0.0000                   RIV =           0.0000     RIV-1                            
                 RCH =           0.0000                   RCH =           0.0000     RCH_MSW                          

           TOTAL OUT =       12406.4703             TOTAL OUT =         237.6559

            IN - OUT =       7.3160E-09              IN - OUT =      -2.6085E-09

 PERCENT DISCREPANCY =           0.00     PERCENT DISCREPANCY =          -0.00




         TIME SUMMARY AT END OF TIME STEP    1 IN STRESS PERIOD   26
                    SECONDS     MINUTES      HOURS       DAYS        YEARS
                    -----------------------------------------------------------
   TIME STEP LENGTH  86400.      1440.0      24.000      1.0000     2.73785E-03
 STRESS PERIOD TIME  86400.      1440.0      24.000      1.0000     2.73785E-03
         TOTAL TIME 2.24640E+06  37440.      624.00      26.000     7.11841E-02


end timestep


start timestep kper="27" kstp="1" mode="normal"


 OUTPUT CONTROL FOR STRESS PERIOD 27 IS REPEATED USING SETTINGS FROM A PREVIOUS STRESS PERIOD.


 STRESS PERIOD 27 IS TRANSIENT

 UBDSV1 SAVING     FLOW-JA-FACE ON UNIT   1016 AT TIME STEP      1, STRESS PERIOD     27
 UBDSV06 SAVING              RIV IN MODEL GWF_1            PACKAGE GWF_1           CONNECTED TO MODEL GWF_1            PACKAGE RIV-1            ON UNIT   1016 AT TIME STEP      1, STRESS PERIOD     27
 UBDSV06 SAVING              RCH IN MODEL GWF_1            PACKAGE GWF_1           CONNECTED TO MODEL GWF_1            PACKAGE RCH_MSW          ON UNIT   1016 AT TIME STEP      1, STRESS PERIOD     27

 HEAD WILL BE SAVED ON UNIT 1017 AT END OF TIME STEP    1, STRESS PERIOD   27


  VOLUME BUDGET FOR ENTIRE MODEL AT END OF TIME STEP    1, STRESS PERIOD  27
  ---------------------------------------------------------------------------------------------------

     CUMULATIVE VOLUME      L**3       RATES FOR THIS TIME STEP      L**3/T          PACKAGE NAME    
     ------------------                 ------------------------                     ----------------

           IN:                                      IN:
           ---                                      ---
              STO-SS =           0.0000                STO-SS =           0.0000     STORAGE                          
                 RIV =           0.0000                   RIV =           0.0000     RIV-1                            
                 RCH =       12682.5527                   RCH =         276.0824     RCH_MSW                          

            TOTAL IN =       12682.5527              TOTAL IN =         276.0824

          OUT:                                     OUT:
          ----                                     ----
              STO-SS =       12682.5527                STO-SS =         276.0824     STORAGE                          
                 RIV =           0.0000                   RIV =           0.0000     RIV-1                            
                 RCH =           0.0000                   RCH =           0.0000     RCH_MSW                          

           TOTAL OUT =       12682.5527             TOTAL OUT =         276.0824

            IN - OUT =       9.1804E-09              IN - OUT =       1.8651E-09

 PERCENT DISCREPANCY =           0.00     PERCENT DISCREPANCY =           0.00




         TIME SUMMARY AT END OF TIME STEP    1 IN STRESS PERIOD   27
                    SECONDS     MINUTES      HOURS       DAYS        YEARS
                    -----------------------------------------------------------
   TIME STEP LENGTH  86400.      1440.0      24.000      1.0000     2.73785E-03
 STRESS PERIOD TIME  86400.      1440.0      24.000      1.0000     2.73785E-03
         TOTAL TIME 2.33280E+06  38880.      648.00      27.000     7.39220E-02


end timestep


start timestep kper="28" kstp="1" mode="normal"


 OUTPUT CONTROL FOR STRESS PERIOD 28 IS REPEATED USING SETTINGS FROM A PREVIOUS STRESS PERIOD.


 STRESS PERIOD 28 IS TRANSIENT

 UBDSV1 SAVING     FLOW-JA-FACE ON UNIT   1016 AT TIME STEP      1, STRESS PERIOD     28
 UBDSV06 SAVING              RIV IN MODEL GWF_1            PACKAGE GWF_1           CONNECTED TO MODEL GWF_1            PACKAGE RIV-1            ON UNIT   1016 AT TIME STEP      1, STRESS PERIOD     28
 UBDSV06 SAVING              RCH IN MODEL GWF_1            PACKAGE GWF_1           CONNECTED TO MODEL GWF_1            PACKAGE RCH_MSW          ON UNIT   1016 AT TIME STEP      1, STRESS PERIOD     28

 HEAD WILL BE SAVED ON UNIT 1017 AT END OF TIME STEP    1, STRESS PERIOD   28


  VOLUME BUDGET FOR ENTIRE MODEL AT END OF TIME STEP    1, STRESS PERIOD  28
  ---------------------------------------------------------------------------------------------------

     CUMULATIVE VOLUME      L**3       RATES FOR THIS TIME STEP      L**3/T          PACKAGE NAME    
     ------------------                 ------------------------                     ----------------

           IN:                                      IN:
           ---                                      ---
              STO-SS =           0.0000                STO-SS =           0.0000     STORAGE                          
                 RIV =           0.0000                   RIV =           0.0000     RIV-1                            
                 RCH =       13021.1055                   RCH =         338.5528     RCH_MSW                          

            TOTAL IN =       13021.1055              TOTAL IN =         338.5528

          OUT:                                     OUT:
          ----                                     ----
              STO-SS =       13021.1055                STO-SS =         338.5528     STORAGE                          
                 RIV =           0.0000                   RIV =           0.0000     RIV-1                            
                 RCH =           0.0000                   RCH =           0.0000     RCH_MSW                          

           TOTAL OUT =       13021.1055             TOTAL OUT =         338.5528

            IN - OUT =       9.2878E-09              IN - OUT =       1.0664E-10

 PERCENT DISCREPANCY =           0.00     PERCENT DISCREPANCY =           0.00




         TIME SUMMARY AT END OF TIME STEP    1 IN STRESS PERIOD   28
                    SECONDS     MINUTES      HOURS       DAYS        YEARS
                    -----------------------------------------------------------
   TIME STEP LENGTH  86400.      1440.0      24.000      1.0000     2.73785E-03
 STRESS PERIOD TIME  86400.      1440.0      24.000      1.0000     2.73785E-03
         TOTAL TIME 2.41920E+06  40320.      672.00      28.000     7.66598E-02


end timestep


start timestep kper="29" kstp="1" mode="normal"


 OUTPUT CONTROL FOR STRESS PERIOD 29 IS REPEATED USING SETTINGS FROM A PREVIOUS STRESS PERIOD.


 STRESS PERIOD 29 IS TRANSIENT

 UBDSV1 SAVING     FLOW-JA-FACE ON UNIT   1016 AT TIME STEP      1, STRESS PERIOD     29
 UBDSV06 SAVING              RIV IN MODEL GWF_1            PACKAGE GWF_1           CONNECTED TO MODEL GWF_1            PACKAGE RIV-1            ON UNIT   1016 AT TIME STEP      1, STRESS PERIOD     29
 UBDSV06 SAVING              RCH IN MODEL GWF_1            PACKAGE GWF_1           CONNECTED TO MODEL GWF_1            PACKAGE RCH_MSW          ON UNIT   1016 AT TIME STEP      1, STRESS PERIOD     29

 HEAD WILL BE SAVED ON UNIT 1017 AT END OF TIME STEP    1, STRESS PERIOD   29


  VOLUME BUDGET FOR ENTIRE MODEL AT END OF TIME STEP    1, STRESS PERIOD  29
  ---------------------------------------------------------------------------------------------------

     CUMULATIVE VOLUME      L**3       RATES FOR THIS TIME STEP      L**3/T          PACKAGE NAME    
     ------------------                 ------------------------                     ----------------

           IN:                                      IN:
           ---                                      ---
              STO-SS =           0.0000                STO-SS =           0.0000     STORAGE                          
                 RIV =           0.0000                   RIV =           0.0000     RIV-1                            
                 RCH =       13425.1186                   RCH =         404.0131     RCH_MSW                          

            TOTAL IN =       13425.1186              TOTAL IN =         404.0131

          OUT:                                     OUT:
          ----                                     ----
              STO-SS =       13425.1186                STO-SS =         404.0131     STORAGE                          
                 RIV =           0.0000                   RIV =           0.0000     RIV-1                            
                 RCH =           0.0000                   RCH =           0.0000     RCH_MSW                          

           TOTAL OUT =       13425.1186             TOTAL OUT =         404.0131

            IN - OUT =       8.5402E-09              IN - OUT =      -7.4829E-10

 PERCENT DISCREPANCY =           0.00     PERCENT DISCREPANCY =          -0.00




         TIME SUMMARY AT END OF TIME STEP    1 IN STRESS PERIOD   29
                    SECONDS     MINUTES      HOURS       DAYS        YEARS
                    -----------------------------------------------------------
   TIME STEP LENGTH  86400.      1440.0      24.000      1.0000     2.73785E-03
 STRESS PERIOD TIME  86400.      1440.0      24.000      1.0000     2.73785E-03
         TOTAL TIME 2.50560E+06  41760.      696.00      29.000     7.93977E-02


end timestep


start timestep kper="30" kstp="1" mode="normal"


 OUTPUT CONTROL FOR STRESS PERIOD 30 IS REPEATED USING SETTINGS FROM A PREVIOUS STRESS PERIOD.


 STRESS PERIOD 30 IS TRANSIENT

 UBDSV1 SAVING     FLOW-JA-FACE ON UNIT   1016 AT TIME STEP      1, STRESS PERIOD     30
 UBDSV06 SAVING              RIV IN MODEL GWF_1            PACKAGE GWF_1           CONNECTED TO MODEL GWF_1            PACKAGE RIV-1            ON UNIT   1016 AT TIME STEP      1, STRESS PERIOD     30
 UBDSV06 SAVING              RCH IN MODEL GWF_1            PACKAGE GWF_1           CONNECTED TO MODEL GWF_1            PACKAGE RCH_MSW          ON UNIT   1016 AT TIME STEP      1, STRESS PERIOD     30

 HEAD WILL BE SAVED ON UNIT 1017 AT END OF TIME STEP    1, STRESS PERIOD   30


  VOLUME BUDGET FOR ENTIRE MODEL AT END OF TIME STEP    1, STRESS PERIOD  30
  ---------------------------------------------------------------------------------------------------

     CUMULATIVE VOLUME      L**3       RATES FOR THIS TIME STEP      L**3/T          PACKAGE NAME    
     ------------------                 ------------------------                     ----------------

           IN:                                      IN:
           ---                                      ---
              STO-SS =           0.0000                STO-SS =           0.0000     STORAGE                          
                 RIV =           0.0000                   RIV =           0.0000     RIV-1                            
                 RCH =       13874.3688                   RCH =         449.2502     RCH_MSW                          

            TOTAL IN =       13874.3688              TOTAL IN =         449.2502

          OUT:                                     OUT:
          ----                                     ----
              STO-SS =       13874.3688                STO-SS =         449.2502     STORAGE                          
                 RIV =           0.0000                   RIV =           0.0000     RIV-1                            
                 RCH =           0.0000                   RCH =           0.0000     RCH_MSW                          

           TOTAL OUT =       13874.3688             TOTAL OUT =         449.2502

            IN - OUT =       1.0436E-08              IN - OUT =       1.8956E-09

 PERCENT DISCREPANCY =           0.00     PERCENT DISCREPANCY =           0.00




         TIME SUMMARY AT END OF TIME STEP    1 IN STRESS PERIOD   30
                    SECONDS     MINUTES      HOURS       DAYS        YEARS
                    -----------------------------------------------------------
   TIME STEP LENGTH  86400.      1440.0      24.000      1.0000     2.73785E-03
 STRESS PERIOD TIME  86400.      1440.0      24.000      1.0000     2.73785E-03
         TOTAL TIME 2.59200E+06  43200.      720.00      30.000     8.21355E-02


end timestep


start timestep kper="31" kstp="1" mode="normal"


 OUTPUT CONTROL FOR STRESS PERIOD 31 IS REPEATED USING SETTINGS FROM A PREVIOUS STRESS PERIOD.


 STRESS PERIOD 31 IS TRANSIENT

 UBDSV1 SAVING     FLOW-JA-FACE ON UNIT   1016 AT TIME STEP      1, STRESS PERIOD     31
 UBDSV06 SAVING              RIV IN MODEL GWF_1            PACKAGE GWF_1           CONNECTED TO MODEL GWF_1            PACKAGE RIV-1            ON UNIT   1016 AT TIME STEP      1, STRESS PERIOD     31
 UBDSV06 SAVING              RCH IN MODEL GWF_1            PACKAGE GWF_1           CONNECTED TO MODEL GWF_1            PACKAGE RCH_MSW          ON UNIT   1016 AT TIME STEP      1, STRESS PERIOD     31

 HEAD WILL BE SAVED ON UNIT 1017 AT END OF TIME STEP    1, STRESS PERIOD   31


  VOLUME BUDGET FOR ENTIRE MODEL AT END OF TIME STEP    1, STRESS PERIOD  31
  ---------------------------------------------------------------------------------------------------

     CUMULATIVE VOLUME      L**3       RATES FOR THIS TIME STEP      L**3/T          PACKAGE NAME    
     ------------------                 ------------------------                     ----------------

           IN:                                      IN:
           ---                                      ---
              STO-SS =           0.0000                STO-SS =           0.0000     STORAGE                          
                 RIV =           0.0000                   RIV =           0.0000     RIV-1                            
                 RCH =       14321.9688                   RCH =         447.6000     RCH_MSW                          

            TOTAL IN =       14321.9688              TOTAL IN =         447.6000

          OUT:                                     OUT:
          ----                                     ----
              STO-SS =       14321.9688                STO-SS =         447.6000     STORAGE                          
                 RIV =           0.0000                   RIV =           0.0000     RIV-1                            
                 RCH =           0.0000                   RCH =           0.0000     RCH_MSW                          

           TOTAL OUT =       14321.9688             TOTAL OUT =         447.6000

            IN - OUT =       1.0328E-08              IN - OUT =      -1.0789E-10

 PERCENT DISCREPANCY =           0.00     PERCENT DISCREPANCY =          -0.00




         TIME SUMMARY AT END OF TIME STEP    1 IN STRESS PERIOD   31
                    SECONDS     MINUTES      HOURS       DAYS        YEARS
                    -----------------------------------------------------------
   TIME STEP LENGTH  86400.      1440.0      24.000      1.0000     2.73785E-03
 STRESS PERIOD TIME  86400.      1440.0      24.000      1.0000     2.73785E-03
         TOTAL TIME 2.67840E+06  44640.      744.00      31.000     8.48734E-02


end timestep


start timestep kper="32" kstp="1" mode="normal"


 OUTPUT CONTROL FOR STRESS PERIOD 32 IS REPEATED USING SETTINGS FROM A PREVIOUS STRESS PERIOD.


 STRESS PERIOD 32 IS TRANSIENT

 UBDSV1 SAVING     FLOW-JA-FACE ON UNIT   1016 AT TIME STEP      1, STRESS PERIOD     32
 UBDSV06 SAVING              RIV IN MODEL GWF_1            PACKAGE GWF_1           CONNECTED TO MODEL GWF_1            PACKAGE RIV-1            ON UNIT   1016 AT TIME STEP      1, STRESS PERIOD     32
 UBDSV06 SAVING              RCH IN MODEL GWF_1            PACKAGE GWF_1           CONNECTED TO MODEL GWF_1            PACKAGE RCH_MSW          ON UNIT   1016 AT TIME STEP      1, STRESS PERIOD     32

 HEAD WILL BE SAVED ON UNIT 1017 AT END OF TIME STEP    1, STRESS PERIOD   32


  VOLUME BUDGET FOR ENTIRE MODEL AT END OF TIME STEP    1, STRESS PERIOD  32
  ---------------------------------------------------------------------------------------------------

     CUMULATIVE VOLUME      L**3       RATES FOR THIS TIME STEP      L**3/T          PACKAGE NAME    
     ------------------                 ------------------------                     ----------------

           IN:                                      IN:
           ---                                      ---
              STO-SS =           0.0000                STO-SS =           0.0000     STORAGE                          
                 RIV =           0.0000                   RIV =           0.0000     RIV-1                            
                 RCH =       14738.9073                   RCH =         416.9385     RCH_MSW                          

            TOTAL IN =       14738.9073              TOTAL IN =         416.9385

          OUT:                                     OUT:
          ----                                     ----
              STO-SS =       14738.9073                STO-SS =         416.9385     STORAGE                          
                 RIV =           0.0000                   RIV =           0.0000     RIV-1                            
                 RCH =           0.0000                   RCH =           0.0000     RCH_MSW                          

           TOTAL OUT =       14738.9073             TOTAL OUT =         416.9385

            IN - OUT =       2.6012E-10              IN - OUT =      -1.0069E-08

 PERCENT DISCREPANCY =           0.00     PERCENT DISCREPANCY =          -0.00




         TIME SUMMARY AT END OF TIME STEP    1 IN STRESS PERIOD   32
                    SECONDS     MINUTES      HOURS       DAYS        YEARS
                    -----------------------------------------------------------
   TIME STEP LENGTH  86400.      1440.0      24.000      1.0000     2.73785E-03
 STRESS PERIOD TIME  86400.      1440.0      24.000      1.0000     2.73785E-03
         TOTAL TIME 2.76480E+06  46080.      768.00      32.000     8.76112E-02


end timestep


start timestep kper="33" kstp="1" mode="normal"


 OUTPUT CONTROL FOR STRESS PERIOD 33 IS REPEATED USING SETTINGS FROM A PREVIOUS STRESS PERIOD.


 STRESS PERIOD 33 IS TRANSIENT

 UBDSV1 SAVING     FLOW-JA-FACE ON UNIT   1016 AT TIME STEP      1, STRESS PERIOD     33
 UBDSV06 SAVING              RIV IN MODEL GWF_1            PACKAGE GWF_1           CONNECTED TO MODEL GWF_1            PACKAGE RIV-1            ON UNIT   1016 AT TIME STEP      1, STRESS PERIOD     33
 UBDSV06 SAVING              RCH IN MODEL GWF_1            PACKAGE GWF_1           CONNECTED TO MODEL GWF_1            PACKAGE RCH_MSW          ON UNIT   1016 AT TIME STEP      1, STRESS PERIOD     33

 HEAD WILL BE SAVED ON UNIT 1017 AT END OF TIME STEP    1, STRESS PERIOD   33


  VOLUME BUDGET FOR ENTIRE MODEL AT END OF TIME STEP    1, STRESS PERIOD  33
  ---------------------------------------------------------------------------------------------------

     CUMULATIVE VOLUME      L**3       RATES FOR THIS TIME STEP      L**3/T          PACKAGE NAME    
     ------------------                 ------------------------                     ----------------

           IN:                                      IN:
           ---                                      ---
              STO-SS =           0.0000                STO-SS =           0.0000     STORAGE                          
                 RIV =           0.0000                   RIV =           0.0000     RIV-1                            
                 RCH =       15115.9903                   RCH =         377.0829     RCH_MSW                          

            TOTAL IN =       15115.9903              TOTAL IN =         377.0829

          OUT:                                     OUT:
          ----                                     ----
              STO-SS =       15115.9903                STO-SS =         377.0829     STORAGE                          
                 RIV =           0.0000                   RIV =           0.0000     RIV-1                            
                 RCH =           0.0000                   RCH =           0.0000     RCH_MSW                          

           TOTAL OUT =       15115.9903             TOTAL OUT =         377.0829

            IN - OUT =      -1.1114E-09              IN - OUT =      -1.3711E-09

 PERCENT DISCREPANCY =          -0.00     PERCENT DISCREPANCY =          -0.00




         TIME SUMMARY AT END OF TIME STEP    1 IN STRESS PERIOD   33
                    SECONDS     MINUTES      HOURS       DAYS        YEARS
                    -----------------------------------------------------------
   TIME STEP LENGTH  86400.      1440.0      24.000      1.0000     2.73785E-03
 STRESS PERIOD TIME  86400.      1440.0      24.000      1.0000     2.73785E-03
         TOTAL TIME 2.85120E+06  47520.      792.00      33.000     9.03491E-02


end timestep


start timestep kper="34" kstp="1" mode="normal"


 OUTPUT CONTROL FOR STRESS PERIOD 34 IS REPEATED USING SETTINGS FROM A PREVIOUS STRESS PERIOD.


 STRESS PERIOD 34 IS TRANSIENT

 UBDSV1 SAVING     FLOW-JA-FACE ON UNIT   1016 AT TIME STEP      1, STRESS PERIOD     34
 UBDSV06 SAVING              RIV IN MODEL GWF_1            PACKAGE GWF_1           CONNECTED TO MODEL GWF_1            PACKAGE RIV-1            ON UNIT   1016 AT TIME STEP      1, STRESS PERIOD     34
 UBDSV06 SAVING              RCH IN MODEL GWF_1            PACKAGE GWF_1           CONNECTED TO MODEL GWF_1            PACKAGE RCH_MSW          ON UNIT   1016 AT TIME STEP      1, STRESS PERIOD     34

 HEAD WILL BE SAVED ON UNIT 1017 AT END OF TIME STEP    1, STRESS PERIOD   34


  VOLUME BUDGET FOR ENTIRE MODEL AT END OF TIME STEP    1, STRESS PERIOD  34
  ---------------------------------------------------------------------------------------------------

     CUMULATIVE VOLUME      L**3       RATES FOR THIS TIME STEP      L**3/T          PACKAGE NAME    
     ------------------                 ------------------------                     ----------------

           IN:                                      IN:
           ---                                      ---
              STO-SS =           0.0000                STO-SS =           0.0000     STORAGE                          
                 RIV =           0.0000                   RIV =           0.0000     RIV-1                            
                 RCH =       15501.7137                   RCH =         385.7234     RCH_MSW                          

            TOTAL IN =       15501.7137              TOTAL IN =         385.7234

          OUT:                                     OUT:
          ----                                     ----
              STO-SS =       15501.7137                STO-SS =         385.7234     STORAGE                          
                 RIV =           0.0000                   RIV =           0.0000     RIV-1                            
                 RCH =           0.0000                   RCH =           0.0000     RCH_MSW                          

           TOTAL OUT =       15501.7137             TOTAL OUT =         385.7234

            IN - OUT =      -3.7544E-09              IN - OUT =      -2.6430E-09

 PERCENT DISCREPANCY =          -0.00     PERCENT DISCREPANCY =          -0.00




         TIME SUMMARY AT END OF TIME STEP    1 IN STRESS PERIOD   34
                    SECONDS     MINUTES      HOURS       DAYS        YEARS
                    -----------------------------------------------------------
   TIME STEP LENGTH  86400.      1440.0      24.000      1.0000     2.73785E-03
 STRESS PERIOD TIME  86400.      1440.0      24.000      1.0000     2.73785E-03
         TOTAL TIME 2.93760E+06  48960.      816.00      34.000     9.30869E-02


end timestep


start timestep kper="35" kstp="1" mode="normal"


 OUTPUT CONTROL FOR STRESS PERIOD 35 IS REPEATED USING SETTINGS FROM A PREVIOUS STRESS PERIOD.


 STRESS PERIOD 35 IS TRANSIENT

 UBDSV1 SAVING     FLOW-JA-FACE ON UNIT   1016 AT TIME STEP      1, STRESS PERIOD     35
 UBDSV06 SAVING              RIV IN MODEL GWF_1            PACKAGE GWF_1           CONNECTED TO MODEL GWF_1            PACKAGE RIV-1            ON UNIT   1016 AT TIME STEP      1, STRESS PERIOD     35
 UBDSV06 SAVING              RCH IN MODEL GWF_1            PACKAGE GWF_1           CONNECTED TO MODEL GWF_1            PACKAGE RCH_MSW          ON UNIT   1016 AT TIME STEP      1, STRESS PERIOD     35

 HEAD WILL BE SAVED ON UNIT 1017 AT END OF TIME STEP    1, STRESS PERIOD   35


  VOLUME BUDGET FOR ENTIRE MODEL AT END OF TIME STEP    1, STRESS PERIOD  35
  ---------------------------------------------------------------------------------------------------

     CUMULATIVE VOLUME      L**3       RATES FOR THIS TIME STEP      L**3/T          PACKAGE NAME    
     ------------------                 ------------------------                     ----------------

           IN:                                      IN:
           ---                                      ---
              STO-SS =           0.0000                STO-SS =           0.0000     STORAGE                          
                 RIV =           0.0000                   RIV =           0.0000     RIV-1                            
                 RCH =       15879.2597                   RCH =         377.5460     RCH_MSW                          

            TOTAL IN =       15879.2597              TOTAL IN =         377.5460

          OUT:                                     OUT:
          ----                                     ----
              STO-SS =       15879.2597                STO-SS =         377.5460     STORAGE                          
                 RIV =           0.0000                   RIV =           0.0000     RIV-1                            
                 RCH =           0.0000                   RCH =           0.0000     RCH_MSW                          

           TOTAL OUT =       15879.2597             TOTAL OUT =         377.5460

            IN - OUT =      -3.1341E-09              IN - OUT =       6.2084E-10

 PERCENT DISCREPANCY =          -0.00     PERCENT DISCREPANCY =           0.00




         TIME SUMMARY AT END OF TIME STEP    1 IN STRESS PERIOD   35
                    SECONDS     MINUTES      HOURS       DAYS        YEARS
                    -----------------------------------------------------------
   TIME STEP LENGTH  86400.      1440.0      24.000      1.0000     2.73785E-03
 STRESS PERIOD TIME  86400.      1440.0      24.000      1.0000     2.73785E-03
         TOTAL TIME 3.02400E+06  50400.      840.00      35.000     9.58248E-02


end timestep


start timestep kper="36" kstp="1" mode="normal"


 OUTPUT CONTROL FOR STRESS PERIOD 36 IS REPEATED USING SETTINGS FROM A PREVIOUS STRESS PERIOD.


 STRESS PERIOD 36 IS TRANSIENT

 UBDSV1 SAVING     FLOW-JA-FACE ON UNIT   1016 AT TIME STEP      1, STRESS PERIOD     36
 UBDSV06 SAVING              RIV IN MODEL GWF_1            PACKAGE GWF_1           CONNECTED TO MODEL GWF_1            PACKAGE RIV-1            ON UNIT   1016 AT TIME STEP      1, STRESS PERIOD     36
 UBDSV06 SAVING              RCH IN MODEL GWF_1            PACKAGE GWF_1           CONNECTED TO MODEL GWF_1            PACKAGE RCH_MSW          ON UNIT   1016 AT TIME STEP      1, STRESS PERIOD     36

 HEAD WILL BE SAVED ON UNIT 1017 AT END OF TIME STEP    1, STRESS PERIOD   36


  VOLUME BUDGET FOR ENTIRE MODEL AT END OF TIME STEP    1, STRESS PERIOD  36
  ---------------------------------------------------------------------------------------------------

     CUMULATIVE VOLUME      L**3       RATES FOR THIS TIME STEP      L**3/T          PACKAGE NAME    
     ------------------                 ------------------------                     ----------------

           IN:                                      IN:
           ---                                      ---
              STO-SS =           0.0000                STO-SS =           0.0000     STORAGE                          
                 RIV =           0.0000                   RIV =           0.0000     RIV-1                            
                 RCH =       16228.8653                   RCH =         349.6057     RCH_MSW                          

            TOTAL IN =       16228.8653              TOTAL IN =         349.6057

          OUT:                                     OUT:
          ----                                     ----
              STO-SS =       16228.8653                STO-SS =         349.6057     STORAGE                          
                 RIV =           0.0000                   RIV =           0.0000     RIV-1                            
                 RCH =           0.0000                   RCH =           0.0000     RCH_MSW                          

           TOTAL OUT =       16228.8653             TOTAL OUT =         349.6057

            IN - OUT =      -1.2642E-09              IN - OUT =       1.8695E-09

 PERCENT DISCREPANCY =          -0.00     PERCENT DISCREPANCY =           0.00




         TIME SUMMARY AT END OF TIME STEP    1 IN STRESS PERIOD   36
                    SECONDS     MINUTES      HOURS       DAYS        YEARS
                    -----------------------------------------------------------
   TIME STEP LENGTH  86400.      1440.0      24.000      1.0000     2.73785E-03
 STRESS PERIOD TIME  86400.      1440.0      24.000      1.0000     2.73785E-03
         TOTAL TIME 3.11040E+06  51840.      864.00      36.000     9.85626E-02


end timestep


start timestep kper="37" kstp="1" mode="normal"


 OUTPUT CONTROL FOR STRESS PERIOD 37 IS REPEATED USING SETTINGS FROM A PREVIOUS STRESS PERIOD.


 STRESS PERIOD 37 IS TRANSIENT

 UBDSV1 SAVING     FLOW-JA-FACE ON UNIT   1016 AT TIME STEP      1, STRESS PERIOD     37
 UBDSV06 SAVING              RIV IN MODEL GWF_1            PACKAGE GWF_1           CONNECTED TO MODEL GWF_1            PACKAGE RIV-1            ON UNIT   1016 AT TIME STEP      1, STRESS PERIOD     37
 UBDSV06 SAVING              RCH IN MODEL GWF_1            PACKAGE GWF_1           CONNECTED TO MODEL GWF_1            PACKAGE RCH_MSW          ON UNIT   1016 AT TIME STEP      1, STRESS PERIOD     37

 HEAD WILL BE SAVED ON UNIT 1017 AT END OF TIME STEP    1, STRESS PERIOD   37


  VOLUME BUDGET FOR ENTIRE MODEL AT END OF TIME STEP    1, STRESS PERIOD  37
  ---------------------------------------------------------------------------------------------------

     CUMULATIVE VOLUME      L**3       RATES FOR THIS TIME STEP      L**3/T          PACKAGE NAME    
     ------------------                 ------------------------                     ----------------

           IN:                                      IN:
           ---                                      ---
              STO-SS =           0.0000                STO-SS =           0.0000     STORAGE                          
                 RIV =           0.0000                   RIV =           0.0000     RIV-1                            
                 RCH =       16545.0291                   RCH =         316.1638     RCH_MSW                          

            TOTAL IN =       16545.0291              TOTAL IN =         316.1638

          OUT:                                     OUT:
          ----                                     ----
              STO-SS =       16545.0291                STO-SS =         316.1638     STORAGE                          
                 RIV =           0.0000                   RIV =           0.0000     RIV-1                            
                 RCH =           0.0000                   RCH =           0.0000     RCH_MSW                          

           TOTAL OUT =       16545.0291             TOTAL OUT =         316.1638

            IN - OUT =       4.1873E-09              IN - OUT =       5.4530E-09

 PERCENT DISCREPANCY =           0.00     PERCENT DISCREPANCY =           0.00




         TIME SUMMARY AT END OF TIME STEP    1 IN STRESS PERIOD   37
                    SECONDS     MINUTES      HOURS       DAYS        YEARS
                    -----------------------------------------------------------
   TIME STEP LENGTH  86400.      1440.0      24.000      1.0000     2.73785E-03
 STRESS PERIOD TIME  86400.      1440.0      24.000      1.0000     2.73785E-03
         TOTAL TIME 3.19680E+06  53280.      888.00      37.000     0.10130    


end timestep


start timestep kper="38" kstp="1" mode="normal"


 OUTPUT CONTROL FOR STRESS PERIOD 38 IS REPEATED USING SETTINGS FROM A PREVIOUS STRESS PERIOD.


 STRESS PERIOD 38 IS TRANSIENT

 UBDSV1 SAVING     FLOW-JA-FACE ON UNIT   1016 AT TIME STEP      1, STRESS PERIOD     38
 UBDSV06 SAVING              RIV IN MODEL GWF_1            PACKAGE GWF_1           CONNECTED TO MODEL GWF_1            PACKAGE RIV-1            ON UNIT   1016 AT TIME STEP      1, STRESS PERIOD     38
 UBDSV06 SAVING              RCH IN MODEL GWF_1            PACKAGE GWF_1           CONNECTED TO MODEL GWF_1            PACKAGE RCH_MSW          ON UNIT   1016 AT TIME STEP      1, STRESS PERIOD     38

 HEAD WILL BE SAVED ON UNIT 1017 AT END OF TIME STEP    1, STRESS PERIOD   38


  VOLUME BUDGET FOR ENTIRE MODEL AT END OF TIME STEP    1, STRESS PERIOD  38
  ---------------------------------------------------------------------------------------------------

     CUMULATIVE VOLUME      L**3       RATES FOR THIS TIME STEP      L**3/T          PACKAGE NAME    
     ------------------                 ------------------------                     ----------------

           IN:                                      IN:
           ---                                      ---
              STO-SS =           0.0000                STO-SS =           0.0000     STORAGE                          
                 RIV =           0.0000                   RIV =           0.0000     RIV-1                            
                 RCH =       16833.5925                   RCH =         288.5634     RCH_MSW                          

            TOTAL IN =       16833.5925              TOTAL IN =         288.5634

          OUT:                                     OUT:
          ----                                     ----
              STO-SS =       16833.5925                STO-SS =         288.5634     STORAGE                          
                 RIV =           0.0000                   RIV =           0.0000     RIV-1                            
                 RCH =           0.0000                   RCH =           0.0000     RCH_MSW                          

           TOTAL OUT =       16833.5925             TOTAL OUT =         288.5634

            IN - OUT =       4.7257E-09              IN - OUT =       5.3677E-10

 PERCENT DISCREPANCY =           0.00     PERCENT DISCREPANCY =           0.00




         TIME SUMMARY AT END OF TIME STEP    1 IN STRESS PERIOD   38
                    SECONDS     MINUTES      HOURS       DAYS        YEARS
                    -----------------------------------------------------------
   TIME STEP LENGTH  86400.      1440.0      24.000      1.0000     2.73785E-03
 STRESS PERIOD TIME  86400.      1440.0      24.000      1.0000     2.73785E-03
         TOTAL TIME 3.28320E+06  54720.      912.00      38.000     0.10404    


end timestep


start timestep kper="39" kstp="1" mode="normal"


 OUTPUT CONTROL FOR STRESS PERIOD 39 IS REPEATED USING SETTINGS FROM A PREVIOUS STRESS PERIOD.


 STRESS PERIOD 39 IS TRANSIENT

 UBDSV1 SAVING     FLOW-JA-FACE ON UNIT   1016 AT TIME STEP      1, STRESS PERIOD     39
 UBDSV06 SAVING              RIV IN MODEL GWF_1            PACKAGE GWF_1           CONNECTED TO MODEL GWF_1            PACKAGE RIV-1            ON UNIT   1016 AT TIME STEP      1, STRESS PERIOD     39
 UBDSV06 SAVING              RCH IN MODEL GWF_1            PACKAGE GWF_1           CONNECTED TO MODEL GWF_1            PACKAGE RCH_MSW          ON UNIT   1016 AT TIME STEP      1, STRESS PERIOD     39

 HEAD WILL BE SAVED ON UNIT 1017 AT END OF TIME STEP    1, STRESS PERIOD   39


  VOLUME BUDGET FOR ENTIRE MODEL AT END OF TIME STEP    1, STRESS PERIOD  39
  ---------------------------------------------------------------------------------------------------

     CUMULATIVE VOLUME      L**3       RATES FOR THIS TIME STEP      L**3/T          PACKAGE NAME    
     ------------------                 ------------------------                     ----------------

           IN:                                      IN:
           ---                                      ---
              STO-SS =           0.0000                STO-SS =           0.0000     STORAGE                          
                 RIV =           0.0000                   RIV =           0.0000     RIV-1                            
                 RCH =       17093.6740                   RCH =         260.0814     RCH_MSW                          

            TOTAL IN =       17093.6740              TOTAL IN =         260.0814

          OUT:                                     OUT:
          ----                                     ----
              STO-SS =       17093.6740                STO-SS =         260.0814     STORAGE                          
                 RIV =           0.0000                   RIV =           0.0000     RIV-1                            
                 RCH =           0.0000                   RCH =           0.0000     RCH_MSW                          

           TOTAL OUT =       17093.6740             TOTAL OUT =         260.0814

            IN - OUT =       7.9999E-09              IN - OUT =       3.2725E-09

 PERCENT DISCREPANCY =           0.00     PERCENT DISCREPANCY =           0.00




         TIME SUMMARY AT END OF TIME STEP    1 IN STRESS PERIOD   39
                    SECONDS     MINUTES      HOURS       DAYS        YEARS
                    -----------------------------------------------------------
   TIME STEP LENGTH  86400.      1440.0      24.000      1.0000     2.73785E-03
 STRESS PERIOD TIME  86400.      1440.0      24.000      1.0000     2.73785E-03
         TOTAL TIME 3.36960E+06  56160.      936.00      39.000     0.10678    


end timestep


start timestep kper="40" kstp="1" mode="normal"


 OUTPUT CONTROL FOR STRESS PERIOD 40 IS REPEATED USING SETTINGS FROM A PREVIOUS STRESS PERIOD.


 STRESS PERIOD 40 IS TRANSIENT

 UBDSV1 SAVING     FLOW-JA-FACE ON UNIT   1016 AT TIME STEP      1, STRESS PERIOD     40
 UBDSV06 SAVING              RIV IN MODEL GWF_1            PACKAGE GWF_1           CONNECTED TO MODEL GWF_1            PACKAGE RIV-1            ON UNIT   1016 AT TIME STEP      1, STRESS PERIOD     40
 UBDSV06 SAVING              RCH IN MODEL GWF_1            PACKAGE GWF_1           CONNECTED TO MODEL GWF_1            PACKAGE RCH_MSW          ON UNIT   1016 AT TIME STEP      1, STRESS PERIOD     40

 HEAD WILL BE SAVED ON UNIT 1017 AT END OF TIME STEP    1, STRESS PERIOD   40


  VOLUME BUDGET FOR ENTIRE MODEL AT END OF TIME STEP    1, STRESS PERIOD  40
  ---------------------------------------------------------------------------------------------------

     CUMULATIVE VOLUME      L**3       RATES FOR THIS TIME STEP      L**3/T          PACKAGE NAME    
     ------------------                 ------------------------                     ----------------

           IN:                                      IN:
           ---                                      ---
              STO-SS =           0.0000                STO-SS =           0.0000     STORAGE                          
                 RIV =           0.0000                   RIV =           0.0000     RIV-1                            
                 RCH =       17327.5724                   RCH =         233.8984     RCH_MSW                          

            TOTAL IN =       17327.5724              TOTAL IN =         233.8984

          OUT:                                     OUT:
          ----                                     ----
              STO-SS =       17327.5724                STO-SS =         233.8984     STORAGE                          
                 RIV =           0.0000                   RIV =           0.0000     RIV-1                            
                 RCH =           0.0000                   RCH =           0.0000     RCH_MSW                          

           TOTAL OUT =       17327.5724             TOTAL OUT =         233.8984

            IN - OUT =       1.3093E-08              IN - OUT =       5.0945E-09

 PERCENT DISCREPANCY =           0.00     PERCENT DISCREPANCY =           0.00




         TIME SUMMARY AT END OF TIME STEP    1 IN STRESS PERIOD   40
                    SECONDS     MINUTES      HOURS       DAYS        YEARS
                    -----------------------------------------------------------
   TIME STEP LENGTH  86400.      1440.0      24.000      1.0000     2.73785E-03
 STRESS PERIOD TIME  86400.      1440.0      24.000      1.0000     2.73785E-03
         TOTAL TIME 3.45600E+06  57600.      960.00      40.000     0.10951    


end timestep


start timestep kper="41" kstp="1" mode="normal"


 OUTPUT CONTROL FOR STRESS PERIOD 41 IS REPEATED USING SETTINGS FROM A PREVIOUS STRESS PERIOD.


 STRESS PERIOD 41 IS TRANSIENT

 UBDSV1 SAVING     FLOW-JA-FACE ON UNIT   1016 AT TIME STEP      1, STRESS PERIOD     41
 UBDSV06 SAVING              RIV IN MODEL GWF_1            PACKAGE GWF_1           CONNECTED TO MODEL GWF_1            PACKAGE RIV-1            ON UNIT   1016 AT TIME STEP      1, STRESS PERIOD     41
 UBDSV06 SAVING              RCH IN MODEL GWF_1            PACKAGE GWF_1           CONNECTED TO MODEL GWF_1            PACKAGE RCH_MSW          ON UNIT   1016 AT TIME STEP      1, STRESS PERIOD     41

 HEAD WILL BE SAVED ON UNIT 1017 AT END OF TIME STEP    1, STRESS PERIOD   41


  VOLUME BUDGET FOR ENTIRE MODEL AT END OF TIME STEP    1, STRESS PERIOD  41
  ---------------------------------------------------------------------------------------------------

     CUMULATIVE VOLUME      L**3       RATES FOR THIS TIME STEP      L**3/T          PACKAGE NAME    
     ------------------                 ------------------------                     ----------------

           IN:                                      IN:
           ---                                      ---
              STO-SS =           0.0000                STO-SS =           0.0000     STORAGE                          
                 RIV =           0.0000                   RIV =           0.0000     RIV-1                            
                 RCH =       17537.8134                   RCH =         210.2410     RCH_MSW                          

            TOTAL IN =       17537.8134              TOTAL IN =         210.2410

          OUT:                                     OUT:
          ----                                     ----
              STO-SS =       17537.8134                STO-SS =         210.2410     STORAGE                          
                 RIV =           0.0000                   RIV =           0.0000     RIV-1                            
                 RCH =           0.0000                   RCH =           0.0000     RCH_MSW                          

           TOTAL OUT =       17537.8134             TOTAL OUT =         210.2410

            IN - OUT =       1.1743E-08              IN - OUT =      -1.3492E-09

 PERCENT DISCREPANCY =           0.00     PERCENT DISCREPANCY =          -0.00




         TIME SUMMARY AT END OF TIME STEP    1 IN STRESS PERIOD   41
                    SECONDS     MINUTES      HOURS       DAYS        YEARS
                    -----------------------------------------------------------
   TIME STEP LENGTH  86400.      1440.0      24.000      1.0000     2.73785E-03
 STRESS PERIOD TIME  86400.      1440.0      24.000      1.0000     2.73785E-03
         TOTAL TIME 3.54240E+06  59040.      984.00      41.000     0.11225    


end timestep


start timestep kper="42" kstp="1" mode="normal"


 OUTPUT CONTROL FOR STRESS PERIOD 42 IS REPEATED USING SETTINGS FROM A PREVIOUS STRESS PERIOD.


 STRESS PERIOD 42 IS TRANSIENT

 UBDSV1 SAVING     FLOW-JA-FACE ON UNIT   1016 AT TIME STEP      1, STRESS PERIOD     42
 UBDSV06 SAVING              RIV IN MODEL GWF_1            PACKAGE GWF_1           CONNECTED TO MODEL GWF_1            PACKAGE RIV-1            ON UNIT   1016 AT TIME STEP      1, STRESS PERIOD     42
 UBDSV06 SAVING              RCH IN MODEL GWF_1            PACKAGE GWF_1           CONNECTED TO MODEL GWF_1            PACKAGE RCH_MSW          ON UNIT   1016 AT TIME STEP      1, STRESS PERIOD     42

 HEAD WILL BE SAVED ON UNIT 1017 AT END OF TIME STEP    1, STRESS PERIOD   42


  VOLUME BUDGET FOR ENTIRE MODEL AT END OF TIME STEP    1, STRESS PERIOD  42
  ---------------------------------------------------------------------------------------------------

     CUMULATIVE VOLUME      L**3       RATES FOR THIS TIME STEP      L**3/T          PACKAGE NAME    
     ------------------                 ------------------------                     ----------------

           IN:                                      IN:
           ---                                      ---
              STO-SS =           0.0000                STO-SS =           0.0000     STORAGE                          
                 RIV =           0.0000                   RIV =           0.0000     RIV-1                            
                 RCH =       17725.4410                   RCH =         187.6275     RCH_MSW                          

            TOTAL IN =       17725.4410              TOTAL IN =         187.6275

          OUT:                                     OUT:
          ----                                     ----
              STO-SS =       17725.4410                STO-SS =         187.6275     STORAGE                          
                 RIV =           0.0000                   RIV =           0.0000     RIV-1                            
                 RCH =           0.0000                   RCH =           0.0000     RCH_MSW                          

           TOTAL OUT =       17725.4410             TOTAL OUT =         187.6275

            IN - OUT =       1.3955E-08              IN - OUT =       2.2105E-09

 PERCENT DISCREPANCY =           0.00     PERCENT DISCREPANCY =           0.00




         TIME SUMMARY AT END OF TIME STEP    1 IN STRESS PERIOD   42
                    SECONDS     MINUTES      HOURS       DAYS        YEARS
                    -----------------------------------------------------------
   TIME STEP LENGTH  86400.      1440.0      24.000      1.0000     2.73785E-03
 STRESS PERIOD TIME  86400.      1440.0      24.000      1.0000     2.73785E-03
         TOTAL TIME 3.62880E+06  60480.      1008.0      42.000     0.11499    


end timestep


start timestep kper="43" kstp="1" mode="normal"


 OUTPUT CONTROL FOR STRESS PERIOD 43 IS REPEATED USING SETTINGS FROM A PREVIOUS STRESS PERIOD.


 STRESS PERIOD 43 IS TRANSIENT

 UBDSV1 SAVING     FLOW-JA-FACE ON UNIT   1016 AT TIME STEP      1, STRESS PERIOD     43
 UBDSV06 SAVING              RIV IN MODEL GWF_1            PACKAGE GWF_1           CONNECTED TO MODEL GWF_1            PACKAGE RIV-1            ON UNIT   1016 AT TIME STEP      1, STRESS PERIOD     43
 UBDSV06 SAVING              RCH IN MODEL GWF_1            PACKAGE GWF_1           CONNECTED TO MODEL GWF_1            PACKAGE RCH_MSW          ON UNIT   1016 AT TIME STEP      1, STRESS PERIOD     43

 HEAD WILL BE SAVED ON UNIT 1017 AT END OF TIME STEP    1, STRESS PERIOD   43


  VOLUME BUDGET FOR ENTIRE MODEL AT END OF TIME STEP    1, STRESS PERIOD  43
  ---------------------------------------------------------------------------------------------------

     CUMULATIVE VOLUME      L**3       RATES FOR THIS TIME STEP      L**3/T          PACKAGE NAME    
     ------------------                 ------------------------                     ----------------

           IN:                                      IN:
           ---                                      ---
              STO-SS =           0.0000                STO-SS =           0.0000     STORAGE                          
                 RIV =           0.0000                   RIV =           0.0000     RIV-1                            
                 RCH =       17901.6591                   RCH =         176.2181     RCH_MSW                          

            TOTAL IN =       17901.6591              TOTAL IN =         176.2181

          OUT:                                     OUT:
          ----                                     ----
              STO-SS =       17901.6591                STO-SS =         176.2181     STORAGE                          
                 RIV =           0.0000                   RIV =           0.0000     RIV-1                            
                 RCH =           0.0000                   RCH =           0.0000     RCH_MSW                          

           TOTAL OUT =       17901.6591             TOTAL OUT =         176.2181

            IN - OUT =       1.7884E-08              IN - OUT =       3.9289E-09

 PERCENT DISCREPANCY =           0.00     PERCENT DISCREPANCY =           0.00




         TIME SUMMARY AT END OF TIME STEP    1 IN STRESS PERIOD   43
                    SECONDS     MINUTES      HOURS       DAYS        YEARS
                    -----------------------------------------------------------
   TIME STEP LENGTH  86400.      1440.0      24.000      1.0000     2.73785E-03
 STRESS PERIOD TIME  86400.      1440.0      24.000      1.0000     2.73785E-03
         TOTAL TIME 3.71520E+06  61920.      1032.0      43.000     0.11773    


end timestep


start timestep kper="44" kstp="1" mode="normal"


 OUTPUT CONTROL FOR STRESS PERIOD 44 IS REPEATED USING SETTINGS FROM A PREVIOUS STRESS PERIOD.


 STRESS PERIOD 44 IS TRANSIENT

 UBDSV1 SAVING     FLOW-JA-FACE ON UNIT   1016 AT TIME STEP      1, STRESS PERIOD     44
 UBDSV06 SAVING              RIV IN MODEL GWF_1            PACKAGE GWF_1           CONNECTED TO MODEL GWF_1            PACKAGE RIV-1            ON UNIT   1016 AT TIME STEP      1, STRESS PERIOD     44
 UBDSV06 SAVING              RCH IN MODEL GWF_1            PACKAGE GWF_1           CONNECTED TO MODEL GWF_1            PACKAGE RCH_MSW          ON UNIT   1016 AT TIME STEP      1, STRESS PERIOD     44

 HEAD WILL BE SAVED ON UNIT 1017 AT END OF TIME STEP    1, STRESS PERIOD   44


  VOLUME BUDGET FOR ENTIRE MODEL AT END OF TIME STEP    1, STRESS PERIOD  44
  ---------------------------------------------------------------------------------------------------

     CUMULATIVE VOLUME      L**3       RATES FOR THIS TIME STEP      L**3/T          PACKAGE NAME    
     ------------------                 ------------------------                     ----------------

           IN:                                      IN:
           ---                                      ---
              STO-SS =           0.0000                STO-SS =           0.0000     STORAGE                          
                 RIV =           0.0000                   RIV =           0.0000     RIV-1                            
                 RCH =       18071.9099                   RCH =         170.2508     RCH_MSW                          

            TOTAL IN =       18071.9099              TOTAL IN =         170.2508

          OUT:                                     OUT:
          ----                                     ----
              STO-SS =       18071.9099                STO-SS =         170.2508     STORAGE                          
                 RIV =           0.0000                   RIV =           0.0000     RIV-1                            
                 RCH =           0.0000                   RCH =           0.0000     RCH_MSW                          

           TOTAL OUT =       18071.9099             TOTAL OUT =         170.2508

            IN - OUT =       1.7153E-08              IN - OUT =      -7.2950E-10

 PERCENT DISCREPANCY =           0.00     PERCENT DISCREPANCY =          -0.00




         TIME SUMMARY AT END OF TIME STEP    1 IN STRESS PERIOD   44
                    SECONDS     MINUTES      HOURS       DAYS        YEARS
                    -----------------------------------------------------------
   TIME STEP LENGTH  86400.      1440.0      24.000      1.0000     2.73785E-03
 STRESS PERIOD TIME  86400.      1440.0      24.000      1.0000     2.73785E-03
         TOTAL TIME 3.80160E+06  63360.      1056.0      44.000     0.12047    


end timestep


start timestep kper="45" kstp="1" mode="normal"


 OUTPUT CONTROL FOR STRESS PERIOD 45 IS REPEATED USING SETTINGS FROM A PREVIOUS STRESS PERIOD.


 STRESS PERIOD 45 IS TRANSIENT

 UBDSV1 SAVING     FLOW-JA-FACE ON UNIT   1016 AT TIME STEP      1, STRESS PERIOD     45
 UBDSV06 SAVING              RIV IN MODEL GWF_1            PACKAGE GWF_1           CONNECTED TO MODEL GWF_1            PACKAGE RIV-1            ON UNIT   1016 AT TIME STEP      1, STRESS PERIOD     45
 UBDSV06 SAVING              RCH IN MODEL GWF_1            PACKAGE GWF_1           CONNECTED TO MODEL GWF_1            PACKAGE RCH_MSW          ON UNIT   1016 AT TIME STEP      1, STRESS PERIOD     45

 HEAD WILL BE SAVED ON UNIT 1017 AT END OF TIME STEP    1, STRESS PERIOD   45


  VOLUME BUDGET FOR ENTIRE MODEL AT END OF TIME STEP    1, STRESS PERIOD  45
  ---------------------------------------------------------------------------------------------------

     CUMULATIVE VOLUME      L**3       RATES FOR THIS TIME STEP      L**3/T          PACKAGE NAME    
     ------------------                 ------------------------                     ----------------

           IN:                                      IN:
           ---                                      ---
              STO-SS =           0.0000                STO-SS =           0.0000     STORAGE                          
                 RIV =           0.0000                   RIV =           0.0000     RIV-1                            
                 RCH =       18236.9175                   RCH =         165.0076     RCH_MSW                          

            TOTAL IN =       18236.9175              TOTAL IN =         165.0076

          OUT:                                     OUT:
          ----                                     ----
              STO-SS =       18236.9175                STO-SS =         165.0076     STORAGE                          
                 RIV =           0.0000                   RIV =           0.0000     RIV-1                            
                 RCH =           0.0000                   RCH =           0.0000     RCH_MSW                          

           TOTAL OUT =       18236.9175             TOTAL OUT =         165.0076

            IN - OUT =       1.6651E-08              IN - OUT =      -5.0170E-10

 PERCENT DISCREPANCY =           0.00     PERCENT DISCREPANCY =          -0.00




         TIME SUMMARY AT END OF TIME STEP    1 IN STRESS PERIOD   45
                    SECONDS     MINUTES      HOURS       DAYS        YEARS
                    -----------------------------------------------------------
   TIME STEP LENGTH  86400.      1440.0      24.000      1.0000     2.73785E-03
 STRESS PERIOD TIME  86400.      1440.0      24.000      1.0000     2.73785E-03
         TOTAL TIME 3.88800E+06  64800.      1080.0      45.000     0.12320    


end timestep


start timestep kper="46" kstp="1" mode="normal"


 OUTPUT CONTROL FOR STRESS PERIOD 46 IS REPEATED USING SETTINGS FROM A PREVIOUS STRESS PERIOD.


 STRESS PERIOD 46 IS TRANSIENT

 UBDSV1 SAVING     FLOW-JA-FACE ON UNIT   1016 AT TIME STEP      1, STRESS PERIOD     46
 UBDSV06 SAVING              RIV IN MODEL GWF_1            PACKAGE GWF_1           CONNECTED TO MODEL GWF_1            PACKAGE RIV-1            ON UNIT   1016 AT TIME STEP      1, STRESS PERIOD     46
 UBDSV06 SAVING              RCH IN MODEL GWF_1            PACKAGE GWF_1           CONNECTED TO MODEL GWF_1            PACKAGE RCH_MSW          ON UNIT   1016 AT TIME STEP      1, STRESS PERIOD     46

 HEAD WILL BE SAVED ON UNIT 1017 AT END OF TIME STEP    1, STRESS PERIOD   46


  VOLUME BUDGET FOR ENTIRE MODEL AT END OF TIME STEP    1, STRESS PERIOD  46
  ---------------------------------------------------------------------------------------------------

     CUMULATIVE VOLUME      L**3       RATES FOR THIS TIME STEP      L**3/T          PACKAGE NAME    
     ------------------                 ------------------------                     ----------------

           IN:                                      IN:
           ---                                      ---
              STO-SS =           0.0000                STO-SS =           0.0000     STORAGE                          
                 RIV =           0.0000                   RIV =           0.0000     RIV-1                            
                 RCH =       18475.2859                   RCH =         238.3684     RCH_MSW                          

            TOTAL IN =       18475.2859              TOTAL IN =         238.3684

          OUT:                                     OUT:
          ----                                     ----
              STO-SS =       18475.2859                STO-SS =         238.3684     STORAGE                          
                 RIV =           0.0000                   RIV =           0.0000     RIV-1                            
                 RCH =           0.0000                   RCH =           0.0000     RCH_MSW                          

           TOTAL OUT =       18475.2859             TOTAL OUT =         238.3684

            IN - OUT =       2.3898E-08              IN - OUT =       7.2480E-09

 PERCENT DISCREPANCY =           0.00     PERCENT DISCREPANCY =           0.00




         TIME SUMMARY AT END OF TIME STEP    1 IN STRESS PERIOD   46
                    SECONDS     MINUTES      HOURS       DAYS        YEARS
                    -----------------------------------------------------------
   TIME STEP LENGTH  86400.      1440.0      24.000      1.0000     2.73785E-03
 STRESS PERIOD TIME  86400.      1440.0      24.000      1.0000     2.73785E-03
         TOTAL TIME 3.97440E+06  66240.      1104.0      46.000     0.12594    


end timestep


start timestep kper="47" kstp="1" mode="normal"


 OUTPUT CONTROL FOR STRESS PERIOD 47 IS REPEATED USING SETTINGS FROM A PREVIOUS STRESS PERIOD.


 STRESS PERIOD 47 IS TRANSIENT

 UBDSV1 SAVING     FLOW-JA-FACE ON UNIT   1016 AT TIME STEP      1, STRESS PERIOD     47
 UBDSV06 SAVING              RIV IN MODEL GWF_1            PACKAGE GWF_1           CONNECTED TO MODEL GWF_1            PACKAGE RIV-1            ON UNIT   1016 AT TIME STEP      1, STRESS PERIOD     47
 UBDSV06 SAVING              RCH IN MODEL GWF_1            PACKAGE GWF_1           CONNECTED TO MODEL GWF_1            PACKAGE RCH_MSW          ON UNIT   1016 AT TIME STEP      1, STRESS PERIOD     47

 HEAD WILL BE SAVED ON UNIT 1017 AT END OF TIME STEP    1, STRESS PERIOD   47


  VOLUME BUDGET FOR ENTIRE MODEL AT END OF TIME STEP    1, STRESS PERIOD  47
  ---------------------------------------------------------------------------------------------------

     CUMULATIVE VOLUME      L**3       RATES FOR THIS TIME STEP      L**3/T          PACKAGE NAME    
     ------------------                 ------------------------                     ----------------

           IN:                                      IN:
           ---                                      ---
              STO-SS =           0.0000                STO-SS =           0.0000     STORAGE                          
                 RIV =           0.0000                   RIV =           0.0000     RIV-1                            
                 RCH =       18744.2439                   RCH =         268.9580     RCH_MSW                          

            TOTAL IN =       18744.2439              TOTAL IN =         268.9580

          OUT:                                     OUT:
          ----                                     ----
              STO-SS =       18744.2439                STO-SS =         268.9580     STORAGE                          
                 RIV =           0.0000                   RIV =           0.0000     RIV-1                            
                 RCH =           0.0000                   RCH =           0.0000     RCH_MSW                          

           TOTAL OUT =       18744.2439             TOTAL OUT =         268.9580

            IN - OUT =       2.6794E-08              IN - OUT =       2.8958E-09

 PERCENT DISCREPANCY =           0.00     PERCENT DISCREPANCY =           0.00




         TIME SUMMARY AT END OF TIME STEP    1 IN STRESS PERIOD   47
                    SECONDS     MINUTES      HOURS       DAYS        YEARS
                    -----------------------------------------------------------
   TIME STEP LENGTH  86400.      1440.0      24.000      1.0000     2.73785E-03
 STRESS PERIOD TIME  86400.      1440.0      24.000      1.0000     2.73785E-03
         TOTAL TIME 4.06080E+06  67680.      1128.0      47.000     0.12868    


end timestep


start timestep kper="48" kstp="1" mode="normal"


 OUTPUT CONTROL FOR STRESS PERIOD 48 IS REPEATED USING SETTINGS FROM A PREVIOUS STRESS PERIOD.


 STRESS PERIOD 48 IS TRANSIENT

 UBDSV1 SAVING     FLOW-JA-FACE ON UNIT   1016 AT TIME STEP      1, STRESS PERIOD     48
 UBDSV06 SAVING              RIV IN MODEL GWF_1            PACKAGE GWF_1           CONNECTED TO MODEL GWF_1            PACKAGE RIV-1            ON UNIT   1016 AT TIME STEP      1, STRESS PERIOD     48
 UBDSV06 SAVING              RCH IN MODEL GWF_1            PACKAGE GWF_1           CONNECTED TO MODEL GWF_1            PACKAGE RCH_MSW          ON UNIT   1016 AT TIME STEP      1, STRESS PERIOD     48

 HEAD WILL BE SAVED ON UNIT 1017 AT END OF TIME STEP    1, STRESS PERIOD   48


  VOLUME BUDGET FOR ENTIRE MODEL AT END OF TIME STEP    1, STRESS PERIOD  48
  ---------------------------------------------------------------------------------------------------

     CUMULATIVE VOLUME      L**3       RATES FOR THIS TIME STEP      L**3/T          PACKAGE NAME    
     ------------------                 ------------------------                     ----------------

           IN:                                      IN:
           ---                                      ---
              STO-SS =           0.0000                STO-SS =           0.0000     STORAGE                          
                 RIV =           0.0000                   RIV =           0.0000     RIV-1                            
                 RCH =       19009.8037                   RCH =         265.5598     RCH_MSW                          

            TOTAL IN =       19009.8037              TOTAL IN =         265.5598

          OUT:                                     OUT:
          ----                                     ----
              STO-SS =       19009.8037                STO-SS =         265.5598     STORAGE                          
                 RIV =           0.0000                   RIV =           0.0000     RIV-1                            
                 RCH =           0.0000                   RCH =           0.0000     RCH_MSW                          

           TOTAL OUT =       19009.8037             TOTAL OUT =         265.5598

            IN - OUT =       2.0780E-08              IN - OUT =      -6.0136E-09

 PERCENT DISCREPANCY =           0.00     PERCENT DISCREPANCY =          -0.00




         TIME SUMMARY AT END OF TIME STEP    1 IN STRESS PERIOD   48
                    SECONDS     MINUTES      HOURS       DAYS        YEARS
                    -----------------------------------------------------------
   TIME STEP LENGTH  86400.      1440.0      24.000      1.0000     2.73785E-03
 STRESS PERIOD TIME  86400.      1440.0      24.000      1.0000     2.73785E-03
         TOTAL TIME 4.14720E+06  69120.      1152.0      48.000     0.13142    


end timestep


start timestep kper="49" kstp="1" mode="normal"


 OUTPUT CONTROL FOR STRESS PERIOD 49 IS REPEATED USING SETTINGS FROM A PREVIOUS STRESS PERIOD.


 STRESS PERIOD 49 IS TRANSIENT

 UBDSV1 SAVING     FLOW-JA-FACE ON UNIT   1016 AT TIME STEP      1, STRESS PERIOD     49
 UBDSV06 SAVING              RIV IN MODEL GWF_1            PACKAGE GWF_1           CONNECTED TO MODEL GWF_1            PACKAGE RIV-1            ON UNIT   1016 AT TIME STEP      1, STRESS PERIOD     49
 UBDSV06 SAVING              RCH IN MODEL GWF_1            PACKAGE GWF_1           CONNECTED TO MODEL GWF_1            PACKAGE RCH_MSW          ON UNIT   1016 AT TIME STEP      1, STRESS PERIOD     49

 HEAD WILL BE SAVED ON UNIT 1017 AT END OF TIME STEP    1, STRESS PERIOD   49


  VOLUME BUDGET FOR ENTIRE MODEL AT END OF TIME STEP    1, STRESS PERIOD  49
  ---------------------------------------------------------------------------------------------------

     CUMULATIVE VOLUME      L**3       RATES FOR THIS TIME STEP      L**3/T          PACKAGE NAME    
     ------------------                 ------------------------                     ----------------

           IN:                                      IN:
           ---                                      ---
              STO-SS =           0.0000                STO-SS =           0.0000     STORAGE                          
                 RIV =           0.0000                   RIV =           0.0000     RIV-1                            
                 RCH =       19319.2496                   RCH =         309.4459     RCH_MSW                          

            TOTAL IN =       19319.2496              TOTAL IN =         309.4459

          OUT:                                     OUT:
          ----                                     ----
              STO-SS =       19319.2496                STO-SS =         309.4459     STORAGE                          
                 RIV =           0.0000                   RIV =           0.0000     RIV-1                            
                 RCH =           0.0000                   RCH =           0.0000     RCH_MSW                          

           TOTAL OUT =       19319.2496             TOTAL OUT =         309.4459

            IN - OUT =       1.7000E-08              IN - OUT =      -3.7800E-09

 PERCENT DISCREPANCY =           0.00     PERCENT DISCREPANCY =          -0.00




         TIME SUMMARY AT END OF TIME STEP    1 IN STRESS PERIOD   49
                    SECONDS     MINUTES      HOURS       DAYS        YEARS
                    -----------------------------------------------------------
   TIME STEP LENGTH  86400.      1440.0      24.000      1.0000     2.73785E-03
 STRESS PERIOD TIME  86400.      1440.0      24.000      1.0000     2.73785E-03
         TOTAL TIME 4.23360E+06  70560.      1176.0      49.000     0.13415    


end timestep


start timestep kper="50" kstp="1" mode="normal"


 OUTPUT CONTROL FOR STRESS PERIOD 50 IS REPEATED USING SETTINGS FROM A PREVIOUS STRESS PERIOD.


 STRESS PERIOD 50 IS TRANSIENT

 UBDSV1 SAVING     FLOW-JA-FACE ON UNIT   1016 AT TIME STEP      1, STRESS PERIOD     50
 UBDSV06 SAVING              RIV IN MODEL GWF_1            PACKAGE GWF_1           CONNECTED TO MODEL GWF_1            PACKAGE RIV-1            ON UNIT   1016 AT TIME STEP      1, STRESS PERIOD     50
 UBDSV06 SAVING              RCH IN MODEL GWF_1            PACKAGE GWF_1           CONNECTED TO MODEL GWF_1            PACKAGE RCH_MSW          ON UNIT   1016 AT TIME STEP      1, STRESS PERIOD     50

 HEAD WILL BE SAVED ON UNIT 1017 AT END OF TIME STEP    1, STRESS PERIOD   50


  VOLUME BUDGET FOR ENTIRE MODEL AT END OF TIME STEP    1, STRESS PERIOD  50
  ---------------------------------------------------------------------------------------------------

     CUMULATIVE VOLUME      L**3       RATES FOR THIS TIME STEP      L**3/T          PACKAGE NAME    
     ------------------                 ------------------------                     ----------------

           IN:                                      IN:
           ---                                      ---
              STO-SS =           0.0000                STO-SS =           0.0000     STORAGE                          
                 RIV =           0.0000                   RIV =           0.0000     RIV-1                            
                 RCH =       19618.3863                   RCH =         299.1368     RCH_MSW                          

            TOTAL IN =       19618.3863              TOTAL IN =         299.1368

          OUT:                                     OUT:
          ----                                     ----
              STO-SS =       19618.3863                STO-SS =         299.1368     STORAGE                          
                 RIV =           0.0000                   RIV =           0.0000     RIV-1                            
                 RCH =           0.0000                   RCH =           0.0000     RCH_MSW                          

           TOTAL OUT =       19618.3863             TOTAL OUT =         299.1368

            IN - OUT =       2.3236E-08              IN - OUT =       6.2350E-09

 PERCENT DISCREPANCY =           0.00     PERCENT DISCREPANCY =           0.00




         TIME SUMMARY AT END OF TIME STEP    1 IN STRESS PERIOD   50
                    SECONDS     MINUTES      HOURS       DAYS        YEARS
                    -----------------------------------------------------------
   TIME STEP LENGTH  86400.      1440.0      24.000      1.0000     2.73785E-03
 STRESS PERIOD TIME  86400.      1440.0      24.000      1.0000     2.73785E-03
         TOTAL TIME 4.32000E+06  72000.      1200.0      50.000     0.13689    


end timestep


start timestep kper="51" kstp="1" mode="normal"


 OUTPUT CONTROL FOR STRESS PERIOD 51 IS REPEATED USING SETTINGS FROM A PREVIOUS STRESS PERIOD.


 STRESS PERIOD 51 IS TRANSIENT

 UBDSV1 SAVING     FLOW-JA-FACE ON UNIT   1016 AT TIME STEP      1, STRESS PERIOD     51
 UBDSV06 SAVING              RIV IN MODEL GWF_1            PACKAGE GWF_1           CONNECTED TO MODEL GWF_1            PACKAGE RIV-1            ON UNIT   1016 AT TIME STEP      1, STRESS PERIOD     51
 UBDSV06 SAVING              RCH IN MODEL GWF_1            PACKAGE GWF_1           CONNECTED TO MODEL GWF_1            PACKAGE RCH_MSW          ON UNIT   1016 AT TIME STEP      1, STRESS PERIOD     51

 HEAD WILL BE SAVED ON UNIT 1017 AT END OF TIME STEP    1, STRESS PERIOD   51


  VOLUME BUDGET FOR ENTIRE MODEL AT END OF TIME STEP    1, STRESS PERIOD  51
  ---------------------------------------------------------------------------------------------------

     CUMULATIVE VOLUME      L**3       RATES FOR THIS TIME STEP      L**3/T          PACKAGE NAME    
     ------------------                 ------------------------                     ----------------

           IN:                                      IN:
           ---                                      ---
              STO-SS =           0.0000                STO-SS =           0.0000     STORAGE                          
                 RIV =           0.0000                   RIV =           0.0000     RIV-1                            
                 RCH =       19901.2910                   RCH =         282.9047     RCH_MSW                          

            TOTAL IN =       19901.2910              TOTAL IN =         282.9047

          OUT:                                     OUT:
          ----                                     ----
              STO-SS =       19901.2910                STO-SS =         282.9047     STORAGE                          
                 RIV =           0.0000                   RIV =           0.0000     RIV-1                            
                 RCH =           0.0000                   RCH =           0.0000     RCH_MSW                          

           TOTAL OUT =       19901.2910             TOTAL OUT =         282.9047

            IN - OUT =       2.1515E-08              IN - OUT =      -1.7205E-09

 PERCENT DISCREPANCY =           0.00     PERCENT DISCREPANCY =          -0.00




         TIME SUMMARY AT END OF TIME STEP    1 IN STRESS PERIOD   51
                    SECONDS     MINUTES      HOURS       DAYS        YEARS
                    -----------------------------------------------------------
   TIME STEP LENGTH  86400.      1440.0      24.000      1.0000     2.73785E-03
 STRESS PERIOD TIME  86400.      1440.0      24.000      1.0000     2.73785E-03
         TOTAL TIME 4.40640E+06  73440.      1224.0      51.000     0.13963    


end timestep


start timestep kper="52" kstp="1" mode="normal"


 OUTPUT CONTROL FOR STRESS PERIOD 52 IS REPEATED USING SETTINGS FROM A PREVIOUS STRESS PERIOD.


 STRESS PERIOD 52 IS TRANSIENT

 UBDSV1 SAVING     FLOW-JA-FACE ON UNIT   1016 AT TIME STEP      1, STRESS PERIOD     52
 UBDSV06 SAVING              RIV IN MODEL GWF_1            PACKAGE GWF_1           CONNECTED TO MODEL GWF_1            PACKAGE RIV-1            ON UNIT   1016 AT TIME STEP      1, STRESS PERIOD     52
 UBDSV06 SAVING              RCH IN MODEL GWF_1            PACKAGE GWF_1           CONNECTED TO MODEL GWF_1            PACKAGE RCH_MSW          ON UNIT   1016 AT TIME STEP      1, STRESS PERIOD     52

 HEAD WILL BE SAVED ON UNIT 1017 AT END OF TIME STEP    1, STRESS PERIOD   52


  VOLUME BUDGET FOR ENTIRE MODEL AT END OF TIME STEP    1, STRESS PERIOD  52
  ---------------------------------------------------------------------------------------------------

     CUMULATIVE VOLUME      L**3       RATES FOR THIS TIME STEP      L**3/T          PACKAGE NAME    
     ------------------                 ------------------------                     ----------------

           IN:                                      IN:
           ---                                      ---
              STO-SS =           0.0000                STO-SS =           0.0000     STORAGE                          
                 RIV =           0.0000                   RIV =           0.0000     RIV-1                            
                 RCH =       20173.0068                   RCH =         271.7157     RCH_MSW                          

            TOTAL IN =       20173.0068              TOTAL IN =         271.7157

          OUT:                                     OUT:
          ----                                     ----
              STO-SS =       20173.0068                STO-SS =         271.7157     STORAGE                          
                 RIV =           0.0000                   RIV =           0.0000     RIV-1                            
                 RCH =           0.0000                   RCH =           0.0000     RCH_MSW                          

           TOTAL OUT =       20173.0068             TOTAL OUT =         271.7157

            IN - OUT =       2.3610E-08              IN - OUT =       2.0948E-09

 PERCENT DISCREPANCY =           0.00     PERCENT DISCREPANCY =           0.00




         TIME SUMMARY AT END OF TIME STEP    1 IN STRESS PERIOD   52
                    SECONDS     MINUTES      HOURS       DAYS        YEARS
                    -----------------------------------------------------------
   TIME STEP LENGTH  86400.      1440.0      24.000      1.0000     2.73785E-03
 STRESS PERIOD TIME  86400.      1440.0      24.000      1.0000     2.73785E-03
         TOTAL TIME 4.49280E+06  74880.      1248.0      52.000     0.14237    


end timestep


start timestep kper="53" kstp="1" mode="normal"


 OUTPUT CONTROL FOR STRESS PERIOD 53 IS REPEATED USING SETTINGS FROM A PREVIOUS STRESS PERIOD.


 STRESS PERIOD 53 IS TRANSIENT

 UBDSV1 SAVING     FLOW-JA-FACE ON UNIT   1016 AT TIME STEP      1, STRESS PERIOD     53
 UBDSV06 SAVING              RIV IN MODEL GWF_1            PACKAGE GWF_1           CONNECTED TO MODEL GWF_1            PACKAGE RIV-1            ON UNIT   1016 AT TIME STEP      1, STRESS PERIOD     53
 UBDSV06 SAVING              RCH IN MODEL GWF_1            PACKAGE GWF_1           CONNECTED TO MODEL GWF_1            PACKAGE RCH_MSW          ON UNIT   1016 AT TIME STEP      1, STRESS PERIOD     53

 HEAD WILL BE SAVED ON UNIT 1017 AT END OF TIME STEP    1, STRESS PERIOD   53


  VOLUME BUDGET FOR ENTIRE MODEL AT END OF TIME STEP    1, STRESS PERIOD  53
  ---------------------------------------------------------------------------------------------------

     CUMULATIVE VOLUME      L**3       RATES FOR THIS TIME STEP      L**3/T          PACKAGE NAME    
     ------------------                 ------------------------                     ----------------

           IN:                                      IN:
           ---                                      ---
              STO-SS =           0.0000                STO-SS =           0.0000     STORAGE                          
                 RIV =           0.0000                   RIV =           0.0000     RIV-1                            
                 RCH =       20417.0531                   RCH =         244.0463     RCH_MSW                          

            TOTAL IN =       20417.0531              TOTAL IN =         244.0463

          OUT:                                     OUT:
          ----                                     ----
              STO-SS =       20417.0531                STO-SS =         244.0463     STORAGE                          
                 RIV =           0.0000                   RIV =           0.0000     RIV-1                            
                 RCH =           0.0000                   RCH =           0.0000     RCH_MSW                          

           TOTAL OUT =       20417.0531             TOTAL OUT =         244.0463

            IN - OUT =       3.9221E-08              IN - OUT =       1.5610E-08

 PERCENT DISCREPANCY =           0.00     PERCENT DISCREPANCY =           0.00




         TIME SUMMARY AT END OF TIME STEP    1 IN STRESS PERIOD   53
                    SECONDS     MINUTES      HOURS       DAYS        YEARS
                    -----------------------------------------------------------
   TIME STEP LENGTH  86400.      1440.0      24.000      1.0000     2.73785E-03
 STRESS PERIOD TIME  86400.      1440.0      24.000      1.0000     2.73785E-03
         TOTAL TIME 4.57920E+06  76320.      1272.0      53.000     0.14511    


end timestep


start timestep kper="54" kstp="1" mode="normal"


 OUTPUT CONTROL FOR STRESS PERIOD 54 IS REPEATED USING SETTINGS FROM A PREVIOUS STRESS PERIOD.


 STRESS PERIOD 54 IS TRANSIENT

 UBDSV1 SAVING     FLOW-JA-FACE ON UNIT   1016 AT TIME STEP      1, STRESS PERIOD     54
 UBDSV06 SAVING              RIV IN MODEL GWF_1            PACKAGE GWF_1           CONNECTED TO MODEL GWF_1            PACKAGE RIV-1            ON UNIT   1016 AT TIME STEP      1, STRESS PERIOD     54
 UBDSV06 SAVING              RCH IN MODEL GWF_1            PACKAGE GWF_1           CONNECTED TO MODEL GWF_1            PACKAGE RCH_MSW          ON UNIT   1016 AT TIME STEP      1, STRESS PERIOD     54

 HEAD WILL BE SAVED ON UNIT 1017 AT END OF TIME STEP    1, STRESS PERIOD   54


  VOLUME BUDGET FOR ENTIRE MODEL AT END OF TIME STEP    1, STRESS PERIOD  54
  ---------------------------------------------------------------------------------------------------

     CUMULATIVE VOLUME      L**3       RATES FOR THIS TIME STEP      L**3/T          PACKAGE NAME    
     ------------------                 ------------------------                     ----------------

           IN:                                      IN:
           ---                                      ---
              STO-SS =           0.0000                STO-SS =           0.0000     STORAGE                          
                 RIV =           0.0000                   RIV =           0.0000     RIV-1                            
                 RCH =       20627.7939                   RCH =         210.7408     RCH_MSW                          

            TOTAL IN =       20627.7939              TOTAL IN =         210.7408

          OUT:                                     OUT:
          ----                                     ----
              STO-SS =       20627.7939                STO-SS =         210.7408     STORAGE                          
                 RIV =           0.0000                   RIV =           0.0000     RIV-1                            
                 RCH =           0.0000                   RCH =           0.0000     RCH_MSW                          

           TOTAL OUT =       20627.7939             TOTAL OUT =         210.7408

            IN - OUT =       3.5830E-08              IN - OUT =      -3.3905E-09

 PERCENT DISCREPANCY =           0.00     PERCENT DISCREPANCY =          -0.00




         TIME SUMMARY AT END OF TIME STEP    1 IN STRESS PERIOD   54
                    SECONDS     MINUTES      HOURS       DAYS        YEARS
                    -----------------------------------------------------------
   TIME STEP LENGTH  86400.      1440.0      24.000      1.0000     2.73785E-03
 STRESS PERIOD TIME  86400.      1440.0      24.000      1.0000     2.73785E-03
         TOTAL TIME 4.66560E+06  77760.      1296.0      54.000     0.14784    


end timestep


start timestep kper="55" kstp="1" mode="normal"


 OUTPUT CONTROL FOR STRESS PERIOD 55 IS REPEATED USING SETTINGS FROM A PREVIOUS STRESS PERIOD.


 STRESS PERIOD 55 IS TRANSIENT

 UBDSV1 SAVING     FLOW-JA-FACE ON UNIT   1016 AT TIME STEP      1, STRESS PERIOD     55
 UBDSV06 SAVING              RIV IN MODEL GWF_1            PACKAGE GWF_1           CONNECTED TO MODEL GWF_1            PACKAGE RIV-1            ON UNIT   1016 AT TIME STEP      1, STRESS PERIOD     55
 UBDSV06 SAVING              RCH IN MODEL GWF_1            PACKAGE GWF_1           CONNECTED TO MODEL GWF_1            PACKAGE RCH_MSW          ON UNIT   1016 AT TIME STEP      1, STRESS PERIOD     55

 HEAD WILL BE SAVED ON UNIT 1017 AT END OF TIME STEP    1, STRESS PERIOD   55


  VOLUME BUDGET FOR ENTIRE MODEL AT END OF TIME STEP    1, STRESS PERIOD  55
  ---------------------------------------------------------------------------------------------------

     CUMULATIVE VOLUME      L**3       RATES FOR THIS TIME STEP      L**3/T          PACKAGE NAME    
     ------------------                 ------------------------                     ----------------

           IN:                                      IN:
           ---                                      ---
              STO-SS =           0.0000                STO-SS =           0.0000     STORAGE                          
                 RIV =           0.0000                   RIV =           0.0000     RIV-1                            
                 RCH =       20811.4492                   RCH =         183.6553     RCH_MSW                          

            TOTAL IN =       20811.4492              TOTAL IN =         183.6553

          OUT:                                     OUT:
          ----                                     ----
              STO-SS =       20811.4492                STO-SS =         183.6553     STORAGE                          
                 RIV =           0.0000                   RIV =           0.0000     RIV-1                            
                 RCH =           0.0000                   RCH =           0.0000     RCH_MSW                          

           TOTAL OUT =       20811.4492             TOTAL OUT =         183.6553

            IN - OUT =       3.7398E-08              IN - OUT =       1.5669E-09

 PERCENT DISCREPANCY =           0.00     PERCENT DISCREPANCY =           0.00




         TIME SUMMARY AT END OF TIME STEP    1 IN STRESS PERIOD   55
                    SECONDS     MINUTES      HOURS       DAYS        YEARS
                    -----------------------------------------------------------
   TIME STEP LENGTH  86400.      1440.0      24.000      1.0000     2.73785E-03
 STRESS PERIOD TIME  86400.      1440.0      24.000      1.0000     2.73785E-03
         TOTAL TIME 4.75200E+06  79200.      1320.0      55.000     0.15058    


end timestep


start timestep kper="56" kstp="1" mode="normal"


 OUTPUT CONTROL FOR STRESS PERIOD 56 IS REPEATED USING SETTINGS FROM A PREVIOUS STRESS PERIOD.


 STRESS PERIOD 56 IS TRANSIENT

 UBDSV1 SAVING     FLOW-JA-FACE ON UNIT   1016 AT TIME STEP      1, STRESS PERIOD     56
 UBDSV06 SAVING              RIV IN MODEL GWF_1            PACKAGE GWF_1           CONNECTED TO MODEL GWF_1            PACKAGE RIV-1            ON UNIT   1016 AT TIME STEP      1, STRESS PERIOD     56
 UBDSV06 SAVING              RCH IN MODEL GWF_1            PACKAGE GWF_1           CONNECTED TO MODEL GWF_1            PACKAGE RCH_MSW          ON UNIT   1016 AT TIME STEP      1, STRESS PERIOD     56

 HEAD WILL BE SAVED ON UNIT 1017 AT END OF TIME STEP    1, STRESS PERIOD   56


  VOLUME BUDGET FOR ENTIRE MODEL AT END OF TIME STEP    1, STRESS PERIOD  56
  ---------------------------------------------------------------------------------------------------

     CUMULATIVE VOLUME      L**3       RATES FOR THIS TIME STEP      L**3/T          PACKAGE NAME    
     ------------------                 ------------------------                     ----------------

           IN:                                      IN:
           ---                                      ---
              STO-SS =           0.0000                STO-SS =           0.0000     STORAGE                          
                 RIV =           0.0000                   RIV =           0.0000     RIV-1                            
                 RCH =       20972.5593                   RCH =         161.1101     RCH_MSW                          

            TOTAL IN =       20972.5593              TOTAL IN =         161.1101

          OUT:                                     OUT:
          ----                                     ----
              STO-SS =       20972.5593                STO-SS =         161.1101     STORAGE                          
                 RIV =           0.0000                   RIV =           0.0000     RIV-1                            
                 RCH =           0.0000                   RCH =           0.0000     RCH_MSW                          

           TOTAL OUT =       20972.5593             TOTAL OUT =         161.1101

            IN - OUT =       3.9490E-08              IN - OUT =       2.0922E-09

 PERCENT DISCREPANCY =           0.00     PERCENT DISCREPANCY =           0.00




         TIME SUMMARY AT END OF TIME STEP    1 IN STRESS PERIOD   56
                    SECONDS     MINUTES      HOURS       DAYS        YEARS
                    -----------------------------------------------------------
   TIME STEP LENGTH  86400.      1440.0      24.000      1.0000     2.73785E-03
 STRESS PERIOD TIME  86400.      1440.0      24.000      1.0000     2.73785E-03
         TOTAL TIME 4.83840E+06  80640.      1344.0      56.000     0.15332    


end timestep


start timestep kper="57" kstp="1" mode="normal"


 OUTPUT CONTROL FOR STRESS PERIOD 57 IS REPEATED USING SETTINGS FROM A PREVIOUS STRESS PERIOD.


 STRESS PERIOD 57 IS TRANSIENT

 UBDSV1 SAVING     FLOW-JA-FACE ON UNIT   1016 AT TIME STEP      1, STRESS PERIOD     57
 UBDSV06 SAVING              RIV IN MODEL GWF_1            PACKAGE GWF_1           CONNECTED TO MODEL GWF_1            PACKAGE RIV-1            ON UNIT   1016 AT TIME STEP      1, STRESS PERIOD     57
 UBDSV06 SAVING              RCH IN MODEL GWF_1            PACKAGE GWF_1           CONNECTED TO MODEL GWF_1            PACKAGE RCH_MSW          ON UNIT   1016 AT TIME STEP      1, STRESS PERIOD     57

 HEAD WILL BE SAVED ON UNIT 1017 AT END OF TIME STEP    1, STRESS PERIOD   57


  VOLUME BUDGET FOR ENTIRE MODEL AT END OF TIME STEP    1, STRESS PERIOD  57
  ---------------------------------------------------------------------------------------------------

     CUMULATIVE VOLUME      L**3       RATES FOR THIS TIME STEP      L**3/T          PACKAGE NAME    
     ------------------                 ------------------------                     ----------------

           IN:                                      IN:
           ---                                      ---
              STO-SS =           0.0000                STO-SS =           0.0000     STORAGE                          
                 RIV =           0.0000                   RIV =           0.0000     RIV-1                            
                 RCH =       21110.0977                   RCH =         137.5384     RCH_MSW                          

            TOTAL IN =       21110.0977              TOTAL IN =         137.5384

          OUT:                                     OUT:
          ----                                     ----
              STO-SS =       21110.0977                STO-SS =         137.5384     STORAGE                          
                 RIV =           0.0000                   RIV =           0.0000     RIV-1                            
                 RCH =           0.0000                   RCH =           0.0000     RCH_MSW                          

           TOTAL OUT =       21110.0977             TOTAL OUT =         137.5384

            IN - OUT =       4.4431E-08              IN - OUT =       4.9410E-09

 PERCENT DISCREPANCY =           0.00     PERCENT DISCREPANCY =           0.00




         TIME SUMMARY AT END OF TIME STEP    1 IN STRESS PERIOD   57
                    SECONDS     MINUTES      HOURS       DAYS        YEARS
                    -----------------------------------------------------------
   TIME STEP LENGTH  86400.      1440.0      24.000      1.0000     2.73785E-03
 STRESS PERIOD TIME  86400.      1440.0      24.000      1.0000     2.73785E-03
         TOTAL TIME 4.92480E+06  82080.      1368.0      57.000     0.15606    


end timestep


start timestep kper="58" kstp="1" mode="normal"


 OUTPUT CONTROL FOR STRESS PERIOD 58 IS REPEATED USING SETTINGS FROM A PREVIOUS STRESS PERIOD.


 STRESS PERIOD 58 IS TRANSIENT

 UBDSV1 SAVING     FLOW-JA-FACE ON UNIT   1016 AT TIME STEP      1, STRESS PERIOD     58
 UBDSV06 SAVING              RIV IN MODEL GWF_1            PACKAGE GWF_1           CONNECTED TO MODEL GWF_1            PACKAGE RIV-1            ON UNIT   1016 AT TIME STEP      1, STRESS PERIOD     58
 UBDSV06 SAVING              RCH IN MODEL GWF_1            PACKAGE GWF_1           CONNECTED TO MODEL GWF_1            PACKAGE RCH_MSW          ON UNIT   1016 AT TIME STEP      1, STRESS PERIOD     58

 HEAD WILL BE SAVED ON UNIT 1017 AT END OF TIME STEP    1, STRESS PERIOD   58


  VOLUME BUDGET FOR ENTIRE MODEL AT END OF TIME STEP    1, STRESS PERIOD  58
  ---------------------------------------------------------------------------------------------------

     CUMULATIVE VOLUME      L**3       RATES FOR THIS TIME STEP      L**3/T          PACKAGE NAME    
     ------------------                 ------------------------                     ----------------

           IN:                                      IN:
           ---                                      ---
              STO-SS =           1.2680                STO-SS =           1.2680     STORAGE                          
                 RIV =           0.0000                   RIV =           0.0000     RIV-1                            
                 RCH =       21225.2659                   RCH =         115.1682     RCH_MSW                          

            TOTAL IN =       21226.5339              TOTAL IN =         116.4362

          OUT:                                     OUT:
          ----                                     ----
              STO-SS =       21226.5339                STO-SS =         116.4362     STORAGE                          
                 RIV =           0.0000                   RIV =           0.0000     RIV-1                            
                 RCH =           0.0000                   RCH =           0.0000     RCH_MSW                          

           TOTAL OUT =       21226.5339             TOTAL OUT =         116.4362

            IN - OUT =       3.9821E-08              IN - OUT =      -4.6088E-09

 PERCENT DISCREPANCY =           0.00     PERCENT DISCREPANCY =          -0.00




         TIME SUMMARY AT END OF TIME STEP    1 IN STRESS PERIOD   58
                    SECONDS     MINUTES      HOURS       DAYS        YEARS
                    -----------------------------------------------------------
   TIME STEP LENGTH  86400.      1440.0      24.000      1.0000     2.73785E-03
 STRESS PERIOD TIME  86400.      1440.0      24.000      1.0000     2.73785E-03
         TOTAL TIME 5.01120E+06  83520.      1392.0      58.000     0.15880    


end timestep


start timestep kper="59" kstp="1" mode="normal"


 OUTPUT CONTROL FOR STRESS PERIOD 59 IS REPEATED USING SETTINGS FROM A PREVIOUS STRESS PERIOD.


 STRESS PERIOD 59 IS TRANSIENT

 UBDSV1 SAVING     FLOW-JA-FACE ON UNIT   1016 AT TIME STEP      1, STRESS PERIOD     59
 UBDSV06 SAVING              RIV IN MODEL GWF_1            PACKAGE GWF_1           CONNECTED TO MODEL GWF_1            PACKAGE RIV-1            ON UNIT   1016 AT TIME STEP      1, STRESS PERIOD     59
 UBDSV06 SAVING              RCH IN MODEL GWF_1            PACKAGE GWF_1           CONNECTED TO MODEL GWF_1            PACKAGE RCH_MSW          ON UNIT   1016 AT TIME STEP      1, STRESS PERIOD     59

 HEAD WILL BE SAVED ON UNIT 1017 AT END OF TIME STEP    1, STRESS PERIOD   59


  VOLUME BUDGET FOR ENTIRE MODEL AT END OF TIME STEP    1, STRESS PERIOD  59
  ---------------------------------------------------------------------------------------------------

     CUMULATIVE VOLUME      L**3       RATES FOR THIS TIME STEP      L**3/T          PACKAGE NAME    
     ------------------                 ------------------------                     ----------------

           IN:                                      IN:
           ---                                      ---
              STO-SS =           6.9811                STO-SS =           5.7131     STORAGE                          
                 RIV =           0.0000                   RIV =           0.0000     RIV-1                            
                 RCH =       21323.4833                   RCH =          98.2174     RCH_MSW                          

            TOTAL IN =       21330.4644              TOTAL IN =         103.9305

          OUT:                                     OUT:
          ----                                     ----
              STO-SS =       21328.6409                STO-SS =         102.1069     STORAGE                          
                 RIV =           0.0000                   RIV =           0.0000     RIV-1                            
                 RCH =           1.8235                   RCH =           1.8235     RCH_MSW                          

           TOTAL OUT =       21330.4644             TOTAL OUT =         103.9305

            IN - OUT =       4.5566E-08              IN - OUT =       5.7438E-09

 PERCENT DISCREPANCY =           0.00     PERCENT DISCREPANCY =           0.00




         TIME SUMMARY AT END OF TIME STEP    1 IN STRESS PERIOD   59
                    SECONDS     MINUTES      HOURS       DAYS        YEARS
                    -----------------------------------------------------------
   TIME STEP LENGTH  86400.      1440.0      24.000      1.0000     2.73785E-03
 STRESS PERIOD TIME  86400.      1440.0      24.000      1.0000     2.73785E-03
         TOTAL TIME 5.09760E+06  84960.      1416.0      59.000     0.16153    


end timestep


start timestep kper="60" kstp="1" mode="normal"


 OUTPUT CONTROL FOR STRESS PERIOD 60 IS REPEATED USING SETTINGS FROM A PREVIOUS STRESS PERIOD.


 STRESS PERIOD 60 IS TRANSIENT

 UBDSV1 SAVING     FLOW-JA-FACE ON UNIT   1016 AT TIME STEP      1, STRESS PERIOD     60
 UBDSV06 SAVING              RIV IN MODEL GWF_1            PACKAGE GWF_1           CONNECTED TO MODEL GWF_1            PACKAGE RIV-1            ON UNIT   1016 AT TIME STEP      1, STRESS PERIOD     60
 UBDSV06 SAVING              RCH IN MODEL GWF_1            PACKAGE GWF_1           CONNECTED TO MODEL GWF_1            PACKAGE RCH_MSW          ON UNIT   1016 AT TIME STEP      1, STRESS PERIOD     60

 HEAD WILL BE SAVED ON UNIT 1017 AT END OF TIME STEP    1, STRESS PERIOD   60


  VOLUME BUDGET FOR ENTIRE MODEL AT END OF TIME STEP    1, STRESS PERIOD  60
  ---------------------------------------------------------------------------------------------------

     CUMULATIVE VOLUME      L**3       RATES FOR THIS TIME STEP      L**3/T          PACKAGE NAME    
     ------------------                 ------------------------                     ----------------

           IN:                                      IN:
           ---                                      ---
              STO-SS =          16.3427                STO-SS =           9.3616     STORAGE                          
                 RIV =           0.0000                   RIV =           0.0000     RIV-1                            
                 RCH =       21408.7519                   RCH =          85.2685     RCH_MSW                          

            TOTAL IN =       21425.0945              TOTAL IN =          94.6301

          OUT:                                     OUT:
          ----                                     ----
              STO-SS =       21417.7377                STO-SS =          89.0969     STORAGE                          
                 RIV =           0.0000                   RIV =           0.0000     RIV-1                            
                 RCH =           7.3568                   RCH =           5.5333     RCH_MSW                          

           TOTAL OUT =       21425.0945             TOTAL OUT =          94.6301

            IN - OUT =       4.0167E-08              IN - OUT =      -5.3985E-09

 PERCENT DISCREPANCY =           0.00     PERCENT DISCREPANCY =          -0.00




         TIME SUMMARY AT END OF TIME STEP    1 IN STRESS PERIOD   60
                    SECONDS     MINUTES      HOURS       DAYS        YEARS
                    -----------------------------------------------------------
   TIME STEP LENGTH  86400.      1440.0      24.000      1.0000     2.73785E-03
 STRESS PERIOD TIME  86400.      1440.0      24.000      1.0000     2.73785E-03
         TOTAL TIME 5.18400E+06  86400.      1440.0      60.000     0.16427    


end timestep


start timestep kper="61" kstp="1" mode="normal"


 OUTPUT CONTROL FOR STRESS PERIOD 61 IS REPEATED USING SETTINGS FROM A PREVIOUS STRESS PERIOD.


 STRESS PERIOD 61 IS TRANSIENT

 UBDSV1 SAVING     FLOW-JA-FACE ON UNIT   1016 AT TIME STEP      1, STRESS PERIOD     61
 UBDSV06 SAVING              RIV IN MODEL GWF_1            PACKAGE GWF_1           CONNECTED TO MODEL GWF_1            PACKAGE RIV-1            ON UNIT   1016 AT TIME STEP      1, STRESS PERIOD     61
 UBDSV06 SAVING              RCH IN MODEL GWF_1            PACKAGE GWF_1           CONNECTED TO MODEL GWF_1            PACKAGE RCH_MSW          ON UNIT   1016 AT TIME STEP      1, STRESS PERIOD     61

 HEAD WILL BE SAVED ON UNIT 1017 AT END OF TIME STEP    1, STRESS PERIOD   61


  VOLUME BUDGET FOR ENTIRE MODEL AT END OF TIME STEP    1, STRESS PERIOD  61
  ---------------------------------------------------------------------------------------------------

     CUMULATIVE VOLUME      L**3       RATES FOR THIS TIME STEP      L**3/T          PACKAGE NAME    
     ------------------                 ------------------------                     ----------------

           IN:                                      IN:
           ---                                      ---
              STO-SS =          17.2226                STO-SS =           0.8799     STORAGE                          
                 RIV =           0.0000                   RIV =           0.0000     RIV-1                            
                 RCH =       21494.9942                   RCH =          86.2423     RCH_MSW                          

            TOTAL IN =       21512.2168              TOTAL IN =          87.1223

          OUT:                                     OUT:
          ----                                     ----
              STO-SS =       21504.8600                STO-SS =          87.1223     STORAGE                          
                 RIV =           0.0000                   RIV =           0.0000     RIV-1                            
                 RCH =           7.3568                   RCH =           0.0000     RCH_MSW                          

           TOTAL OUT =       21512.2168             TOTAL OUT =          87.1223

            IN - OUT =       3.9756E-08              IN - OUT =      -4.1274E-10

 PERCENT DISCREPANCY =           0.00     PERCENT DISCREPANCY =          -0.00




         TIME SUMMARY AT END OF TIME STEP    1 IN STRESS PERIOD   61
                    SECONDS     MINUTES      HOURS       DAYS        YEARS
                    -----------------------------------------------------------
   TIME STEP LENGTH  86400.      1440.0      24.000      1.0000     2.73785E-03
 STRESS PERIOD TIME  86400.      1440.0      24.000      1.0000     2.73785E-03
         TOTAL TIME 5.27040E+06  87840.      1464.0      61.000     0.16701    


end timestep


start timestep kper="62" kstp="1" mode="normal"


 OUTPUT CONTROL FOR STRESS PERIOD 62 IS REPEATED USING SETTINGS FROM A PREVIOUS STRESS PERIOD.


 STRESS PERIOD 62 IS TRANSIENT

 UBDSV1 SAVING     FLOW-JA-FACE ON UNIT   1016 AT TIME STEP      1, STRESS PERIOD     62
 UBDSV06 SAVING              RIV IN MODEL GWF_1            PACKAGE GWF_1           CONNECTED TO MODEL GWF_1            PACKAGE RIV-1            ON UNIT   1016 AT TIME STEP      1, STRESS PERIOD     62
 UBDSV06 SAVING              RCH IN MODEL GWF_1            PACKAGE GWF_1           CONNECTED TO MODEL GWF_1            PACKAGE RCH_MSW          ON UNIT   1016 AT TIME STEP      1, STRESS PERIOD     62

 HEAD WILL BE SAVED ON UNIT 1017 AT END OF TIME STEP    1, STRESS PERIOD   62


  VOLUME BUDGET FOR ENTIRE MODEL AT END OF TIME STEP    1, STRESS PERIOD  62
  ---------------------------------------------------------------------------------------------------

     CUMULATIVE VOLUME      L**3       RATES FOR THIS TIME STEP      L**3/T          PACKAGE NAME    
     ------------------                 ------------------------                     ----------------

           IN:                                      IN:
           ---                                      ---
              STO-SS =          17.2226                STO-SS =           0.0000     STORAGE                          
                 RIV =           0.0000                   RIV =           0.0000     RIV-1                            
                 RCH =       21583.8202                   RCH =          88.8260     RCH_MSW                          

            TOTAL IN =       21601.0428              TOTAL IN =          88.8260

          OUT:                                     OUT:
          ----                                     ----
              STO-SS =       21593.6859                STO-SS =          88.8260     STORAGE                          
                 RIV =           0.0000                   RIV =           0.0000     RIV-1                            
                 RCH =           7.3568                   RCH =           0.0000     RCH_MSW                          

           TOTAL OUT =       21601.0428             TOTAL OUT =          88.8260

            IN - OUT =       3.6784E-08              IN - OUT =      -2.9734E-09

 PERCENT DISCREPANCY =           0.00     PERCENT DISCREPANCY =          -0.00




         TIME SUMMARY AT END OF TIME STEP    1 IN STRESS PERIOD   62
                    SECONDS     MINUTES      HOURS       DAYS        YEARS
                    -----------------------------------------------------------
   TIME STEP LENGTH  86400.      1440.0      24.000      1.0000     2.73785E-03
 STRESS PERIOD TIME  86400.      1440.0      24.000      1.0000     2.73785E-03
         TOTAL TIME 5.35680E+06  89280.      1488.0      62.000     0.16975    


end timestep


start timestep kper="63" kstp="1" mode="normal"


 OUTPUT CONTROL FOR STRESS PERIOD 63 IS REPEATED USING SETTINGS FROM A PREVIOUS STRESS PERIOD.


 STRESS PERIOD 63 IS TRANSIENT

 UBDSV1 SAVING     FLOW-JA-FACE ON UNIT   1016 AT TIME STEP      1, STRESS PERIOD     63
 UBDSV06 SAVING              RIV IN MODEL GWF_1            PACKAGE GWF_1           CONNECTED TO MODEL GWF_1            PACKAGE RIV-1            ON UNIT   1016 AT TIME STEP      1, STRESS PERIOD     63
 UBDSV06 SAVING              RCH IN MODEL GWF_1            PACKAGE GWF_1           CONNECTED TO MODEL GWF_1            PACKAGE RCH_MSW          ON UNIT   1016 AT TIME STEP      1, STRESS PERIOD     63

 HEAD WILL BE SAVED ON UNIT 1017 AT END OF TIME STEP    1, STRESS PERIOD   63


  VOLUME BUDGET FOR ENTIRE MODEL AT END OF TIME STEP    1, STRESS PERIOD  63
  ---------------------------------------------------------------------------------------------------

     CUMULATIVE VOLUME      L**3       RATES FOR THIS TIME STEP      L**3/T          PACKAGE NAME    
     ------------------                 ------------------------                     ----------------

           IN:                                      IN:
           ---                                      ---
              STO-SS =          17.2226                STO-SS =           0.0000     STORAGE                          
                 RIV =           0.0000                   RIV =           0.0000     RIV-1                            
                 RCH =       21665.1227                   RCH =          81.3025     RCH_MSW                          

            TOTAL IN =       21682.3453              TOTAL IN =          81.3025

          OUT:                                     OUT:
          ----                                     ----
              STO-SS =       21674.9885                STO-SS =          81.3025     STORAGE                          
                 RIV =           0.0000                   RIV =           0.0000     RIV-1                            
                 RCH =           7.3568                   RCH =           0.0000     RCH_MSW                          

           TOTAL OUT =       21682.3453             TOTAL OUT =          81.3025

            IN - OUT =       3.6533E-08              IN - OUT =      -2.4946E-10

 PERCENT DISCREPANCY =           0.00     PERCENT DISCREPANCY =          -0.00




         TIME SUMMARY AT END OF TIME STEP    1 IN STRESS PERIOD   63
                    SECONDS     MINUTES      HOURS       DAYS        YEARS
                    -----------------------------------------------------------
   TIME STEP LENGTH  86400.      1440.0      24.000      1.0000     2.73785E-03
 STRESS PERIOD TIME  86400.      1440.0      24.000      1.0000     2.73785E-03
         TOTAL TIME 5.44320E+06  90720.      1512.0      63.000     0.17248    


end timestep


start timestep kper="64" kstp="1" mode="normal"


 OUTPUT CONTROL FOR STRESS PERIOD 64 IS REPEATED USING SETTINGS FROM A PREVIOUS STRESS PERIOD.


 STRESS PERIOD 64 IS TRANSIENT

 UBDSV1 SAVING     FLOW-JA-FACE ON UNIT   1016 AT TIME STEP      1, STRESS PERIOD     64
 UBDSV06 SAVING              RIV IN MODEL GWF_1            PACKAGE GWF_1           CONNECTED TO MODEL GWF_1            PACKAGE RIV-1            ON UNIT   1016 AT TIME STEP      1, STRESS PERIOD     64
 UBDSV06 SAVING              RCH IN MODEL GWF_1            PACKAGE GWF_1           CONNECTED TO MODEL GWF_1            PACKAGE RCH_MSW          ON UNIT   1016 AT TIME STEP      1, STRESS PERIOD     64

 HEAD WILL BE SAVED ON UNIT 1017 AT END OF TIME STEP    1, STRESS PERIOD   64


  VOLUME BUDGET FOR ENTIRE MODEL AT END OF TIME STEP    1, STRESS PERIOD  64
  ---------------------------------------------------------------------------------------------------

     CUMULATIVE VOLUME      L**3       RATES FOR THIS TIME STEP      L**3/T          PACKAGE NAME    
     ------------------                 ------------------------                     ----------------

           IN:                                      IN:
           ---                                      ---
              STO-SS =          17.2226                STO-SS =           0.0000     STORAGE                          
                 RIV =           0.0000                   RIV =           0.0000     RIV-1                            
                 RCH =       21747.9369                   RCH =          82.8142     RCH_MSW                          

            TOTAL IN =       21765.1595              TOTAL IN =          82.8142

          OUT:                                     OUT:
          ----                                     ----
              STO-SS =       21757.8026                STO-SS =          82.8142     STORAGE                          
                 RIV =           0.0000                   RIV =           0.0000     RIV-1                            
                 RCH =           7.3568                   RCH =           0.0000     RCH_MSW                          

           TOTAL OUT =       21765.1595             TOTAL OUT =          82.8142

            IN - OUT =       3.8053E-08              IN - OUT =       1.5196E-09

 PERCENT DISCREPANCY =           0.00     PERCENT DISCREPANCY =           0.00




         TIME SUMMARY AT END OF TIME STEP    1 IN STRESS PERIOD   64
                    SECONDS     MINUTES      HOURS       DAYS        YEARS
                    -----------------------------------------------------------
   TIME STEP LENGTH  86400.      1440.0      24.000      1.0000     2.73785E-03
 STRESS PERIOD TIME  86400.      1440.0      24.000      1.0000     2.73785E-03
         TOTAL TIME 5.52960E+06  92160.      1536.0      64.000     0.17522    


end timestep


start timestep kper="65" kstp="1" mode="normal"


 OUTPUT CONTROL FOR STRESS PERIOD 65 IS REPEATED USING SETTINGS FROM A PREVIOUS STRESS PERIOD.


 STRESS PERIOD 65 IS TRANSIENT

 UBDSV1 SAVING     FLOW-JA-FACE ON UNIT   1016 AT TIME STEP      1, STRESS PERIOD     65
 UBDSV06 SAVING              RIV IN MODEL GWF_1            PACKAGE GWF_1           CONNECTED TO MODEL GWF_1            PACKAGE RIV-1            ON UNIT   1016 AT TIME STEP      1, STRESS PERIOD     65
 UBDSV06 SAVING              RCH IN MODEL GWF_1            PACKAGE GWF_1           CONNECTED TO MODEL GWF_1            PACKAGE RCH_MSW          ON UNIT   1016 AT TIME STEP      1, STRESS PERIOD     65

 HEAD WILL BE SAVED ON UNIT 1017 AT END OF TIME STEP    1, STRESS PERIOD   65


  VOLUME BUDGET FOR ENTIRE MODEL AT END OF TIME STEP    1, STRESS PERIOD  65
  ---------------------------------------------------------------------------------------------------

     CUMULATIVE VOLUME      L**3       RATES FOR THIS TIME STEP      L**3/T          PACKAGE NAME    
     ------------------                 ------------------------                     ----------------

           IN:                                      IN:
           ---                                      ---
              STO-SS =          17.5405                STO-SS =           0.3179     STORAGE                          
                 RIV =           0.0000                   RIV =           0.0000     RIV-1                            
                 RCH =       21822.0546                   RCH =          74.1177     RCH_MSW                          

            TOTAL IN =       21839.5951              TOTAL IN =          74.4356

          OUT:                                     OUT:
          ----                                     ----
              STO-SS =       21832.2383                STO-SS =          74.4356     STORAGE                          
                 RIV =           0.0000                   RIV =           0.0000     RIV-1                            
                 RCH =           7.3568                   RCH =           0.0000     RCH_MSW                          

           TOTAL OUT =       21839.5951             TOTAL OUT =          74.4356

            IN - OUT =       2.8958E-08              IN - OUT =      -9.0958E-09

 PERCENT DISCREPANCY =           0.00     PERCENT DISCREPANCY =          -0.00




         TIME SUMMARY AT END OF TIME STEP    1 IN STRESS PERIOD   65
                    SECONDS     MINUTES      HOURS       DAYS        YEARS
                    -----------------------------------------------------------
   TIME STEP LENGTH  86400.      1440.0      24.000      1.0000     2.73785E-03
 STRESS PERIOD TIME  86400.      1440.0      24.000      1.0000     2.73785E-03
         TOTAL TIME 5.61600E+06  93600.      1560.0      65.000     0.17796    


end timestep


start timestep kper="66" kstp="1" mode="normal"


 OUTPUT CONTROL FOR STRESS PERIOD 66 IS REPEATED USING SETTINGS FROM A PREVIOUS STRESS PERIOD.


 STRESS PERIOD 66 IS TRANSIENT

 UBDSV1 SAVING     FLOW-JA-FACE ON UNIT   1016 AT TIME STEP      1, STRESS PERIOD     66
 UBDSV06 SAVING              RIV IN MODEL GWF_1            PACKAGE GWF_1           CONNECTED TO MODEL GWF_1            PACKAGE RIV-1            ON UNIT   1016 AT TIME STEP      1, STRESS PERIOD     66
 UBDSV06 SAVING              RCH IN MODEL GWF_1            PACKAGE GWF_1           CONNECTED TO MODEL GWF_1            PACKAGE RCH_MSW          ON UNIT   1016 AT TIME STEP      1, STRESS PERIOD     66

 HEAD WILL BE SAVED ON UNIT 1017 AT END OF TIME STEP    1, STRESS PERIOD   66


  VOLUME BUDGET FOR ENTIRE MODEL AT END OF TIME STEP    1, STRESS PERIOD  66
  ---------------------------------------------------------------------------------------------------

     CUMULATIVE VOLUME      L**3       RATES FOR THIS TIME STEP      L**3/T          PACKAGE NAME    
     ------------------                 ------------------------                     ----------------

           IN:                                      IN:
           ---                                      ---
              STO-SS =          23.5259                STO-SS =           5.9854     STORAGE                          
                 RIV =           0.0000                   RIV =           0.0000     RIV-1                            
                 RCH =       21887.3744                   RCH =          65.3197     RCH_MSW                          

            TOTAL IN =       21910.9003              TOTAL IN =          71.3052

          OUT:                                     OUT:
          ----                                     ----
              STO-SS =       21901.1579                STO-SS =          68.9196     STORAGE                          
                 RIV =           0.0000                   RIV =           0.0000     RIV-1                            
                 RCH =           9.7424                   RCH =           2.3856     RCH_MSW                          

           TOTAL OUT =       21910.9003             TOTAL OUT =          71.3052

            IN - OUT =       2.8060E-08              IN - OUT =      -8.9895E-10

 PERCENT DISCREPANCY =           0.00     PERCENT DISCREPANCY =          -0.00




         TIME SUMMARY AT END OF TIME STEP    1 IN STRESS PERIOD   66
                    SECONDS     MINUTES      HOURS       DAYS        YEARS
                    -----------------------------------------------------------
   TIME STEP LENGTH  86400.      1440.0      24.000      1.0000     2.73785E-03
 STRESS PERIOD TIME  86400.      1440.0      24.000      1.0000     2.73785E-03
         TOTAL TIME 5.70240E+06  95040.      1584.0      66.000     0.18070    


end timestep


start timestep kper="67" kstp="1" mode="normal"


 OUTPUT CONTROL FOR STRESS PERIOD 67 IS REPEATED USING SETTINGS FROM A PREVIOUS STRESS PERIOD.


 STRESS PERIOD 67 IS TRANSIENT

 UBDSV1 SAVING     FLOW-JA-FACE ON UNIT   1016 AT TIME STEP      1, STRESS PERIOD     67
 UBDSV06 SAVING              RIV IN MODEL GWF_1            PACKAGE GWF_1           CONNECTED TO MODEL GWF_1            PACKAGE RIV-1            ON UNIT   1016 AT TIME STEP      1, STRESS PERIOD     67
 UBDSV06 SAVING              RCH IN MODEL GWF_1            PACKAGE GWF_1           CONNECTED TO MODEL GWF_1            PACKAGE RCH_MSW          ON UNIT   1016 AT TIME STEP      1, STRESS PERIOD     67

 HEAD WILL BE SAVED ON UNIT 1017 AT END OF TIME STEP    1, STRESS PERIOD   67


  VOLUME BUDGET FOR ENTIRE MODEL AT END OF TIME STEP    1, STRESS PERIOD  67
  ---------------------------------------------------------------------------------------------------

     CUMULATIVE VOLUME      L**3       RATES FOR THIS TIME STEP      L**3/T          PACKAGE NAME    
     ------------------                 ------------------------                     ----------------

           IN:                                      IN:
           ---                                      ---
              STO-SS =          30.7344                STO-SS =           7.2085     STORAGE                          
                 RIV =           0.0000                   RIV =           0.0000     RIV-1                            
                 RCH =       21948.2083                   RCH =          60.8340     RCH_MSW                          

            TOTAL IN =       21978.9428              TOTAL IN =          68.0425

          OUT:                                     OUT:
          ----                                     ----
              STO-SS =       21965.5455                STO-SS =          64.3876     STORAGE                          
                 RIV =           0.0000                   RIV =           0.0000     RIV-1                            
                 RCH =          13.3972                   RCH =           3.6548     RCH_MSW                          

           TOTAL OUT =       21978.9428             TOTAL OUT =          68.0425

            IN - OUT =       2.9762E-08              IN - OUT =       1.7024E-09

 PERCENT DISCREPANCY =           0.00     PERCENT DISCREPANCY =           0.00




         TIME SUMMARY AT END OF TIME STEP    1 IN STRESS PERIOD   67
                    SECONDS     MINUTES      HOURS       DAYS        YEARS
                    -----------------------------------------------------------
   TIME STEP LENGTH  86400.      1440.0      24.000      1.0000     2.73785E-03
 STRESS PERIOD TIME  86400.      1440.0      24.000      1.0000     2.73785E-03
         TOTAL TIME 5.78880E+06  96480.      1608.0      67.000     0.18344    


end timestep


start timestep kper="68" kstp="1" mode="normal"


 OUTPUT CONTROL FOR STRESS PERIOD 68 IS REPEATED USING SETTINGS FROM A PREVIOUS STRESS PERIOD.


 STRESS PERIOD 68 IS TRANSIENT

 UBDSV1 SAVING     FLOW-JA-FACE ON UNIT   1016 AT TIME STEP      1, STRESS PERIOD     68
 UBDSV06 SAVING              RIV IN MODEL GWF_1            PACKAGE GWF_1           CONNECTED TO MODEL GWF_1            PACKAGE RIV-1            ON UNIT   1016 AT TIME STEP      1, STRESS PERIOD     68
 UBDSV06 SAVING              RCH IN MODEL GWF_1            PACKAGE GWF_1           CONNECTED TO MODEL GWF_1            PACKAGE RCH_MSW          ON UNIT   1016 AT TIME STEP      1, STRESS PERIOD     68

 HEAD WILL BE SAVED ON UNIT 1017 AT END OF TIME STEP    1, STRESS PERIOD   68


  VOLUME BUDGET FOR ENTIRE MODEL AT END OF TIME STEP    1, STRESS PERIOD  68
  ---------------------------------------------------------------------------------------------------

     CUMULATIVE VOLUME      L**3       RATES FOR THIS TIME STEP      L**3/T          PACKAGE NAME    
     ------------------                 ------------------------                     ----------------

           IN:                                      IN:
           ---                                      ---
              STO-SS =          37.8212                STO-SS =           7.0868     STORAGE                          
                 RIV =           0.0000                   RIV =           0.0000     RIV-1                            
                 RCH =       22005.4659                   RCH =          57.2575     RCH_MSW                          

            TOTAL IN =       22043.2870              TOTAL IN =          64.3443

          OUT:                                     OUT:
          ----                                     ----
              STO-SS =       22026.3122                STO-SS =          60.7667     STORAGE                          
                 RIV =           0.0000                   RIV =           0.0000     RIV-1                            
                 RCH =          16.9748                   RCH =           3.5776     RCH_MSW                          

           TOTAL OUT =       22043.2870             TOTAL OUT =          64.3443

            IN - OUT =       2.7361E-08              IN - OUT =      -2.4013E-09

 PERCENT DISCREPANCY =           0.00     PERCENT DISCREPANCY =          -0.00




         TIME SUMMARY AT END OF TIME STEP    1 IN STRESS PERIOD   68
                    SECONDS     MINUTES      HOURS       DAYS        YEARS
                    -----------------------------------------------------------
   TIME STEP LENGTH  86400.      1440.0      24.000      1.0000     2.73785E-03
 STRESS PERIOD TIME  86400.      1440.0      24.000      1.0000     2.73785E-03
         TOTAL TIME 5.87520E+06  97920.      1632.0      68.000     0.18617    


end timestep


start timestep kper="69" kstp="1" mode="normal"


 OUTPUT CONTROL FOR STRESS PERIOD 69 IS REPEATED USING SETTINGS FROM A PREVIOUS STRESS PERIOD.


 STRESS PERIOD 69 IS TRANSIENT

 UBDSV1 SAVING     FLOW-JA-FACE ON UNIT   1016 AT TIME STEP      1, STRESS PERIOD     69
 UBDSV06 SAVING              RIV IN MODEL GWF_1            PACKAGE GWF_1           CONNECTED TO MODEL GWF_1            PACKAGE RIV-1            ON UNIT   1016 AT TIME STEP      1, STRESS PERIOD     69
 UBDSV06 SAVING              RCH IN MODEL GWF_1            PACKAGE GWF_1           CONNECTED TO MODEL GWF_1            PACKAGE RCH_MSW          ON UNIT   1016 AT TIME STEP      1, STRESS PERIOD     69

 HEAD WILL BE SAVED ON UNIT 1017 AT END OF TIME STEP    1, STRESS PERIOD   69


  VOLUME BUDGET FOR ENTIRE MODEL AT END OF TIME STEP    1, STRESS PERIOD  69
  ---------------------------------------------------------------------------------------------------

     CUMULATIVE VOLUME      L**3       RATES FOR THIS TIME STEP      L**3/T          PACKAGE NAME    
     ------------------                 ------------------------                     ----------------

           IN:                                      IN:
           ---                                      ---
              STO-SS =          44.4499                STO-SS =           6.6287     STORAGE                          
                 RIV =           0.0000                   RIV =           0.0000     RIV-1                            
                 RCH =       22059.4858                   RCH =          54.0199     RCH_MSW                          

            TOTAL IN =       22103.9357              TOTAL IN =          60.6486

          OUT:                                     OUT:
          ----                                     ----
              STO-SS =       22083.7991                STO-SS =          57.4869     STORAGE                          
                 RIV =           0.0000                   RIV =           0.0000     RIV-1                            
                 RCH =          20.1366                   RCH =           3.1617     RCH_MSW                          

           TOTAL OUT =       22103.9357             TOTAL OUT =          60.6486

            IN - OUT =       1.3995E-08              IN - OUT =      -1.3367E-08

 PERCENT DISCREPANCY =           0.00     PERCENT DISCREPANCY =          -0.00




         TIME SUMMARY AT END OF TIME STEP    1 IN STRESS PERIOD   69
                    SECONDS     MINUTES      HOURS       DAYS        YEARS
                    -----------------------------------------------------------
   TIME STEP LENGTH  86400.      1440.0      24.000      1.0000     2.73785E-03
 STRESS PERIOD TIME  86400.      1440.0      24.000      1.0000     2.73785E-03
         TOTAL TIME 5.96160E+06  99360.      1656.0      69.000     0.18891    


end timestep


start timestep kper="70" kstp="1" mode="normal"


 OUTPUT CONTROL FOR STRESS PERIOD 70 IS REPEATED USING SETTINGS FROM A PREVIOUS STRESS PERIOD.


 STRESS PERIOD 70 IS TRANSIENT

 UBDSV1 SAVING     FLOW-JA-FACE ON UNIT   1016 AT TIME STEP      1, STRESS PERIOD     70
 UBDSV06 SAVING              RIV IN MODEL GWF_1            PACKAGE GWF_1           CONNECTED TO MODEL GWF_1            PACKAGE RIV-1            ON UNIT   1016 AT TIME STEP      1, STRESS PERIOD     70
 UBDSV06 SAVING              RCH IN MODEL GWF_1            PACKAGE GWF_1           CONNECTED TO MODEL GWF_1            PACKAGE RCH_MSW          ON UNIT   1016 AT TIME STEP      1, STRESS PERIOD     70

 HEAD WILL BE SAVED ON UNIT 1017 AT END OF TIME STEP    1, STRESS PERIOD   70


  VOLUME BUDGET FOR ENTIRE MODEL AT END OF TIME STEP    1, STRESS PERIOD  70
  ---------------------------------------------------------------------------------------------------

     CUMULATIVE VOLUME      L**3       RATES FOR THIS TIME STEP      L**3/T          PACKAGE NAME    
     ------------------                 ------------------------                     ----------------

           IN:                                      IN:
           ---                                      ---
              STO-SS =          50.0011                STO-SS =           5.5512     STORAGE                          
                 RIV =           0.0000                   RIV =           0.0000     RIV-1                            
                 RCH =       22111.0601                   RCH =          51.5743     RCH_MSW                          

            TOTAL IN =       22161.0611              TOTAL IN =          57.1255

          OUT:                                     OUT:
          ----                                     ----
              STO-SS =       22138.8015                STO-SS =          55.0024     STORAGE                          
                 RIV =           0.0000                   RIV =           0.0000     RIV-1                            
                 RCH =          22.2596                   RCH =           2.1230     RCH_MSW                          

           TOTAL OUT =       22161.0611             TOTAL OUT =          57.1255

            IN - OUT =       2.2854E-08              IN - OUT =       8.8598E-09

 PERCENT DISCREPANCY =           0.00     PERCENT DISCREPANCY =           0.00




         TIME SUMMARY AT END OF TIME STEP    1 IN STRESS PERIOD   70
                    SECONDS     MINUTES      HOURS       DAYS        YEARS
                    -----------------------------------------------------------
   TIME STEP LENGTH  86400.      1440.0      24.000      1.0000     2.73785E-03
 STRESS PERIOD TIME  86400.      1440.0      24.000      1.0000     2.73785E-03
         TOTAL TIME 6.04800E+06 1.00800E+05  1680.0      70.000     0.19165    


end timestep


start timestep kper="71" kstp="1" mode="normal"


 OUTPUT CONTROL FOR STRESS PERIOD 71 IS REPEATED USING SETTINGS FROM A PREVIOUS STRESS PERIOD.


 STRESS PERIOD 71 IS TRANSIENT

 UBDSV1 SAVING     FLOW-JA-FACE ON UNIT   1016 AT TIME STEP      1, STRESS PERIOD     71
 UBDSV06 SAVING              RIV IN MODEL GWF_1            PACKAGE GWF_1           CONNECTED TO MODEL GWF_1            PACKAGE RIV-1            ON UNIT   1016 AT TIME STEP      1, STRESS PERIOD     71
 UBDSV06 SAVING              RCH IN MODEL GWF_1            PACKAGE GWF_1           CONNECTED TO MODEL GWF_1            PACKAGE RCH_MSW          ON UNIT   1016 AT TIME STEP      1, STRESS PERIOD     71

 HEAD WILL BE SAVED ON UNIT 1017 AT END OF TIME STEP    1, STRESS PERIOD   71


  VOLUME BUDGET FOR ENTIRE MODEL AT END OF TIME STEP    1, STRESS PERIOD  71
  ---------------------------------------------------------------------------------------------------

     CUMULATIVE VOLUME      L**3       RATES FOR THIS TIME STEP      L**3/T          PACKAGE NAME    
     ------------------                 ------------------------                     ----------------

           IN:                                      IN:
           ---                                      ---
              STO-SS =          50.0011                STO-SS =           0.0000     STORAGE                          
                 RIV =           0.0000                   RIV =           0.0000     RIV-1                            
                 RCH =       22189.6663                   RCH =          78.6062     RCH_MSW                          

            TOTAL IN =       22239.6673              TOTAL IN =          78.6062

          OUT:                                     OUT:
          ----                                     ----
              STO-SS =       22217.4078                STO-SS =          78.6062     STORAGE                          
                 RIV =           0.0000                   RIV =           0.0000     RIV-1                            
                 RCH =          22.2596                   RCH =           0.0000     RCH_MSW                          

           TOTAL OUT =       22239.6673             TOTAL OUT =          78.6062

            IN - OUT =       2.5440E-08              IN - OUT =       2.5872E-09

 PERCENT DISCREPANCY =           0.00     PERCENT DISCREPANCY =           0.00




         TIME SUMMARY AT END OF TIME STEP    1 IN STRESS PERIOD   71
                    SECONDS     MINUTES      HOURS       DAYS        YEARS
                    -----------------------------------------------------------
   TIME STEP LENGTH  86400.      1440.0      24.000      1.0000     2.73785E-03
 STRESS PERIOD TIME  86400.      1440.0      24.000      1.0000     2.73785E-03
         TOTAL TIME 6.13440E+06 1.02240E+05  1704.0      71.000     0.19439    


end timestep


start timestep kper="72" kstp="1" mode="normal"


 OUTPUT CONTROL FOR STRESS PERIOD 72 IS REPEATED USING SETTINGS FROM A PREVIOUS STRESS PERIOD.


 STRESS PERIOD 72 IS TRANSIENT

 UBDSV1 SAVING     FLOW-JA-FACE ON UNIT   1016 AT TIME STEP      1, STRESS PERIOD     72
 UBDSV06 SAVING              RIV IN MODEL GWF_1            PACKAGE GWF_1           CONNECTED TO MODEL GWF_1            PACKAGE RIV-1            ON UNIT   1016 AT TIME STEP      1, STRESS PERIOD     72
 UBDSV06 SAVING              RCH IN MODEL GWF_1            PACKAGE GWF_1           CONNECTED TO MODEL GWF_1            PACKAGE RCH_MSW          ON UNIT   1016 AT TIME STEP      1, STRESS PERIOD     72

 HEAD WILL BE SAVED ON UNIT 1017 AT END OF TIME STEP    1, STRESS PERIOD   72


  VOLUME BUDGET FOR ENTIRE MODEL AT END OF TIME STEP    1, STRESS PERIOD  72
  ---------------------------------------------------------------------------------------------------

     CUMULATIVE VOLUME      L**3       RATES FOR THIS TIME STEP      L**3/T          PACKAGE NAME    
     ------------------                 ------------------------                     ----------------

           IN:                                      IN:
           ---                                      ---
              STO-SS =          50.0011                STO-SS =           0.0000     STORAGE                          
                 RIV =           0.0000                   RIV =           0.0000     RIV-1                            
                 RCH =       22278.1958                   RCH =          88.5295     RCH_MSW                          

            TOTAL IN =       22328.1969              TOTAL IN =          88.5295

          OUT:                                     OUT:
          ----                                     ----
              STO-SS =       22305.9373                STO-SS =          88.5295     STORAGE                          
                 RIV =           0.0000                   RIV =           0.0000     RIV-1                            
                 RCH =          22.2596                   RCH =           0.0000     RCH_MSW                          

           TOTAL OUT =       22328.1969             TOTAL OUT =          88.5295

            IN - OUT =       2.8758E-08              IN - OUT =       3.3195E-09

 PERCENT DISCREPANCY =           0.00     PERCENT DISCREPANCY =           0.00




         TIME SUMMARY AT END OF TIME STEP    1 IN STRESS PERIOD   72
                    SECONDS     MINUTES      HOURS       DAYS        YEARS
                    -----------------------------------------------------------
   TIME STEP LENGTH  86400.      1440.0      24.000      1.0000     2.73785E-03
 STRESS PERIOD TIME  86400.      1440.0      24.000      1.0000     2.73785E-03
         TOTAL TIME 6.22080E+06 1.03680E+05  1728.0      72.000     0.19713    


end timestep


start timestep kper="73" kstp="1" mode="normal"


 OUTPUT CONTROL FOR STRESS PERIOD 73 IS REPEATED USING SETTINGS FROM A PREVIOUS STRESS PERIOD.


 STRESS PERIOD 73 IS TRANSIENT

 UBDSV1 SAVING     FLOW-JA-FACE ON UNIT   1016 AT TIME STEP      1, STRESS PERIOD     73
 UBDSV06 SAVING              RIV IN MODEL GWF_1            PACKAGE GWF_1           CONNECTED TO MODEL GWF_1            PACKAGE RIV-1            ON UNIT   1016 AT TIME STEP      1, STRESS PERIOD     73
 UBDSV06 SAVING              RCH IN MODEL GWF_1            PACKAGE GWF_1           CONNECTED TO MODEL GWF_1            PACKAGE RCH_MSW          ON UNIT   1016 AT TIME STEP      1, STRESS PERIOD     73

 HEAD WILL BE SAVED ON UNIT 1017 AT END OF TIME STEP    1, STRESS PERIOD   73


  VOLUME BUDGET FOR ENTIRE MODEL AT END OF TIME STEP    1, STRESS PERIOD  73
  ---------------------------------------------------------------------------------------------------

     CUMULATIVE VOLUME      L**3       RATES FOR THIS TIME STEP      L**3/T          PACKAGE NAME    
     ------------------                 ------------------------                     ----------------

           IN:                                      IN:
           ---                                      ---
              STO-SS =          50.0011                STO-SS =           0.0000     STORAGE                          
                 RIV =           0.0000                   RIV =           0.0000     RIV-1                            
                 RCH =       22365.2197                   RCH =          87.0239     RCH_MSW                          

            TOTAL IN =       22415.2207              TOTAL IN =          87.0239

          OUT:                                     OUT:
          ----                                     ----
              STO-SS =       22392.9611                STO-SS =          87.0239     STORAGE                          
                 RIV =           0.0000                   RIV =           0.0000     RIV-1                            
                 RCH =          22.2596                   RCH =           0.0000     RCH_MSW                          

           TOTAL OUT =       22415.2207             TOTAL OUT =          87.0239

            IN - OUT =       2.7678E-08              IN - OUT =      -1.0814E-09

 PERCENT DISCREPANCY =           0.00     PERCENT DISCREPANCY =          -0.00




         TIME SUMMARY AT END OF TIME STEP    1 IN STRESS PERIOD   73
                    SECONDS     MINUTES      HOURS       DAYS        YEARS
                    -----------------------------------------------------------
   TIME STEP LENGTH  86400.      1440.0      24.000      1.0000     2.73785E-03
 STRESS PERIOD TIME  86400.      1440.0      24.000      1.0000     2.73785E-03
         TOTAL TIME 6.30720E+06 1.05120E+05  1752.0      73.000     0.19986    


end timestep


start timestep kper="74" kstp="1" mode="normal"


 OUTPUT CONTROL FOR STRESS PERIOD 74 IS REPEATED USING SETTINGS FROM A PREVIOUS STRESS PERIOD.


 STRESS PERIOD 74 IS TRANSIENT

 UBDSV1 SAVING     FLOW-JA-FACE ON UNIT   1016 AT TIME STEP      1, STRESS PERIOD     74
 UBDSV06 SAVING              RIV IN MODEL GWF_1            PACKAGE GWF_1           CONNECTED TO MODEL GWF_1            PACKAGE RIV-1            ON UNIT   1016 AT TIME STEP      1, STRESS PERIOD     74
 UBDSV06 SAVING              RCH IN MODEL GWF_1            PACKAGE GWF_1           CONNECTED TO MODEL GWF_1            PACKAGE RCH_MSW          ON UNIT   1016 AT TIME STEP      1, STRESS PERIOD     74

 HEAD WILL BE SAVED ON UNIT 1017 AT END OF TIME STEP    1, STRESS PERIOD   74


  VOLUME BUDGET FOR ENTIRE MODEL AT END OF TIME STEP    1, STRESS PERIOD  74
  ---------------------------------------------------------------------------------------------------

     CUMULATIVE VOLUME      L**3       RATES FOR THIS TIME STEP      L**3/T          PACKAGE NAME    
     ------------------                 ------------------------                     ----------------

           IN:                                      IN:
           ---                                      ---
              STO-SS =          50.0011                STO-SS =           0.0000     STORAGE                          
                 RIV =           0.0000                   RIV =           0.0000     RIV-1                            
                 RCH =       22444.6063                   RCH =          79.3867     RCH_MSW                          

            TOTAL IN =       22494.6074              TOTAL IN =          79.3867

          OUT:                                     OUT:
          ----                                     ----
              STO-SS =       22472.3478                STO-SS =          79.3867     STORAGE                          
                 RIV =           0.0000                   RIV =           0.0000     RIV-1                            
                 RCH =          22.2596                   RCH =           0.0000     RCH_MSW                          

           TOTAL OUT =       22494.6074             TOTAL OUT =          79.3867

            IN - OUT =       3.0195E-08              IN - OUT =       2.5165E-09

 PERCENT DISCREPANCY =           0.00     PERCENT DISCREPANCY =           0.00




         TIME SUMMARY AT END OF TIME STEP    1 IN STRESS PERIOD   74
                    SECONDS     MINUTES      HOURS       DAYS        YEARS
                    -----------------------------------------------------------
   TIME STEP LENGTH  86400.      1440.0      24.000      1.0000     2.73785E-03
 STRESS PERIOD TIME  86400.      1440.0      24.000      1.0000     2.73785E-03
         TOTAL TIME 6.39360E+06 1.06560E+05  1776.0      74.000     0.20260    


end timestep


start timestep kper="75" kstp="1" mode="normal"


 OUTPUT CONTROL FOR STRESS PERIOD 75 IS REPEATED USING SETTINGS FROM A PREVIOUS STRESS PERIOD.


 STRESS PERIOD 75 IS TRANSIENT

 UBDSV1 SAVING     FLOW-JA-FACE ON UNIT   1016 AT TIME STEP      1, STRESS PERIOD     75
 UBDSV06 SAVING              RIV IN MODEL GWF_1            PACKAGE GWF_1           CONNECTED TO MODEL GWF_1            PACKAGE RIV-1            ON UNIT   1016 AT TIME STEP      1, STRESS PERIOD     75
 UBDSV06 SAVING              RCH IN MODEL GWF_1            PACKAGE GWF_1           CONNECTED TO MODEL GWF_1            PACKAGE RCH_MSW          ON UNIT   1016 AT TIME STEP      1, STRESS PERIOD     75

 HEAD WILL BE SAVED ON UNIT 1017 AT END OF TIME STEP    1, STRESS PERIOD   75


  VOLUME BUDGET FOR ENTIRE MODEL AT END OF TIME STEP    1, STRESS PERIOD  75
  ---------------------------------------------------------------------------------------------------

     CUMULATIVE VOLUME      L**3       RATES FOR THIS TIME STEP      L**3/T          PACKAGE NAME    
     ------------------                 ------------------------                     ----------------

           IN:                                      IN:
           ---                                      ---
              STO-SS =          50.0011                STO-SS =           0.0000     STORAGE                          
                 RIV =           0.0000                   RIV =           0.0000     RIV-1                            
                 RCH =       22523.0257                   RCH =          78.4193     RCH_MSW                          

            TOTAL IN =       22573.0267              TOTAL IN =          78.4193

          OUT:                                     OUT:
          ----                                     ----
              STO-SS =       22550.7671                STO-SS =          78.4193     STORAGE                          
                 RIV =           0.0000                   RIV =           0.0000     RIV-1                            
                 RCH =          22.2596                   RCH =           0.0000     RCH_MSW                          

           TOTAL OUT =       22573.0267             TOTAL OUT =          78.4193

            IN - OUT =       2.6866E-08              IN - OUT =      -3.3284E-09

 PERCENT DISCREPANCY =           0.00     PERCENT DISCREPANCY =          -0.00




         TIME SUMMARY AT END OF TIME STEP    1 IN STRESS PERIOD   75
                    SECONDS     MINUTES      HOURS       DAYS        YEARS
                    -----------------------------------------------------------
   TIME STEP LENGTH  86400.      1440.0      24.000      1.0000     2.73785E-03
 STRESS PERIOD TIME  86400.      1440.0      24.000      1.0000     2.73785E-03
         TOTAL TIME 6.48000E+06 1.08000E+05  1800.0      75.000     0.20534    


end timestep


start timestep kper="76" kstp="1" mode="normal"


 OUTPUT CONTROL FOR STRESS PERIOD 76 IS REPEATED USING SETTINGS FROM A PREVIOUS STRESS PERIOD.


 STRESS PERIOD 76 IS TRANSIENT

 UBDSV1 SAVING     FLOW-JA-FACE ON UNIT   1016 AT TIME STEP      1, STRESS PERIOD     76
 UBDSV06 SAVING              RIV IN MODEL GWF_1            PACKAGE GWF_1           CONNECTED TO MODEL GWF_1            PACKAGE RIV-1            ON UNIT   1016 AT TIME STEP      1, STRESS PERIOD     76
 UBDSV06 SAVING              RCH IN MODEL GWF_1            PACKAGE GWF_1           CONNECTED TO MODEL GWF_1            PACKAGE RCH_MSW          ON UNIT   1016 AT TIME STEP      1, STRESS PERIOD     76

 HEAD WILL BE SAVED ON UNIT 1017 AT END OF TIME STEP    1, STRESS PERIOD   76


  VOLUME BUDGET FOR ENTIRE MODEL AT END OF TIME STEP    1, STRESS PERIOD  76
  ---------------------------------------------------------------------------------------------------

     CUMULATIVE VOLUME      L**3       RATES FOR THIS TIME STEP      L**3/T          PACKAGE NAME    
     ------------------                 ------------------------                     ----------------

           IN:                                      IN:
           ---                                      ---
              STO-SS =          50.0011                STO-SS =           0.0000     STORAGE                          
                 RIV =           0.0000                   RIV =           0.0000     RIV-1                            
                 RCH =       22614.9568                   RCH =          91.9312     RCH_MSW                          

            TOTAL IN =       22664.9579              TOTAL IN =          91.9312

          OUT:                                     OUT:
          ----                                     ----
              STO-SS =       22642.6983                STO-SS =          91.9312     STORAGE                          
                 RIV =           0.0000                   RIV =           0.0000     RIV-1                            
                 RCH =          22.2596                   RCH =           0.0000     RCH_MSW                          

           TOTAL OUT =       22664.9579             TOTAL OUT =          91.9312

            IN - OUT =       2.4229E-08              IN - OUT =      -2.6393E-09

 PERCENT DISCREPANCY =           0.00     PERCENT DISCREPANCY =          -0.00




         TIME SUMMARY AT END OF TIME STEP    1 IN STRESS PERIOD   76
                    SECONDS     MINUTES      HOURS       DAYS        YEARS
                    -----------------------------------------------------------
   TIME STEP LENGTH  86400.      1440.0      24.000      1.0000     2.73785E-03
 STRESS PERIOD TIME  86400.      1440.0      24.000      1.0000     2.73785E-03
         TOTAL TIME 6.56640E+06 1.09440E+05  1824.0      76.000     0.20808    


end timestep


start timestep kper="77" kstp="1" mode="normal"


 OUTPUT CONTROL FOR STRESS PERIOD 77 IS REPEATED USING SETTINGS FROM A PREVIOUS STRESS PERIOD.


 STRESS PERIOD 77 IS TRANSIENT

 UBDSV1 SAVING     FLOW-JA-FACE ON UNIT   1016 AT TIME STEP      1, STRESS PERIOD     77
 UBDSV06 SAVING              RIV IN MODEL GWF_1            PACKAGE GWF_1           CONNECTED TO MODEL GWF_1            PACKAGE RIV-1            ON UNIT   1016 AT TIME STEP      1, STRESS PERIOD     77
 UBDSV06 SAVING              RCH IN MODEL GWF_1            PACKAGE GWF_1           CONNECTED TO MODEL GWF_1            PACKAGE RCH_MSW          ON UNIT   1016 AT TIME STEP      1, STRESS PERIOD     77

 HEAD WILL BE SAVED ON UNIT 1017 AT END OF TIME STEP    1, STRESS PERIOD   77


  VOLUME BUDGET FOR ENTIRE MODEL AT END OF TIME STEP    1, STRESS PERIOD  77
  ---------------------------------------------------------------------------------------------------

     CUMULATIVE VOLUME      L**3       RATES FOR THIS TIME STEP      L**3/T          PACKAGE NAME    
     ------------------                 ------------------------                     ----------------

           IN:                                      IN:
           ---                                      ---
              STO-SS =          50.0011                STO-SS =           0.0000     STORAGE                          
                 RIV =           0.0000                   RIV =           0.0000     RIV-1                            
                 RCH =       22768.8359                   RCH =         153.8790     RCH_MSW                          

            TOTAL IN =       22818.8369              TOTAL IN =         153.8790

          OUT:                                     OUT:
          ----                                     ----
              STO-SS =       22796.5773                STO-SS =         153.8790     STORAGE                          
                 RIV =           0.0000                   RIV =           0.0000     RIV-1                            
                 RCH =          22.2596                   RCH =           0.0000     RCH_MSW                          

           TOTAL OUT =       22818.8369             TOTAL OUT =         153.8790

            IN - OUT =       2.2308E-08              IN - OUT =      -1.9191E-09

 PERCENT DISCREPANCY =           0.00     PERCENT DISCREPANCY =          -0.00




         TIME SUMMARY AT END OF TIME STEP    1 IN STRESS PERIOD   77
                    SECONDS     MINUTES      HOURS       DAYS        YEARS
                    -----------------------------------------------------------
   TIME STEP LENGTH  86400.      1440.0      24.000      1.0000     2.73785E-03
 STRESS PERIOD TIME  86400.      1440.0      24.000      1.0000     2.73785E-03
         TOTAL TIME 6.65280E+06 1.10880E+05  1848.0      77.000     0.21081    


end timestep


start timestep kper="78" kstp="1" mode="normal"


 OUTPUT CONTROL FOR STRESS PERIOD 78 IS REPEATED USING SETTINGS FROM A PREVIOUS STRESS PERIOD.


 STRESS PERIOD 78 IS TRANSIENT

 UBDSV1 SAVING     FLOW-JA-FACE ON UNIT   1016 AT TIME STEP      1, STRESS PERIOD     78
 UBDSV06 SAVING              RIV IN MODEL GWF_1            PACKAGE GWF_1           CONNECTED TO MODEL GWF_1            PACKAGE RIV-1            ON UNIT   1016 AT TIME STEP      1, STRESS PERIOD     78
 UBDSV06 SAVING              RCH IN MODEL GWF_1            PACKAGE GWF_1           CONNECTED TO MODEL GWF_1            PACKAGE RCH_MSW          ON UNIT   1016 AT TIME STEP      1, STRESS PERIOD     78

 HEAD WILL BE SAVED ON UNIT 1017 AT END OF TIME STEP    1, STRESS PERIOD   78


  VOLUME BUDGET FOR ENTIRE MODEL AT END OF TIME STEP    1, STRESS PERIOD  78
  ---------------------------------------------------------------------------------------------------

     CUMULATIVE VOLUME      L**3       RATES FOR THIS TIME STEP      L**3/T          PACKAGE NAME    
     ------------------                 ------------------------                     ----------------

           IN:                                      IN:
           ---                                      ---
              STO-SS =          50.0011                STO-SS =           0.0000     STORAGE                          
                 RIV =           0.0000                   RIV =           0.0000     RIV-1                            
                 RCH =       22920.3435                   RCH =         151.5077     RCH_MSW                          

            TOTAL IN =       22970.3446              TOTAL IN =         151.5077

          OUT:                                     OUT:
          ----                                     ----
              STO-SS =       22948.0850                STO-SS =         151.5077     STORAGE                          
                 RIV =           0.0000                   RIV =           0.0000     RIV-1                            
                 RCH =          22.2596                   RCH =           0.0000     RCH_MSW                          

           TOTAL OUT =       22970.3446             TOTAL OUT =         151.5077

            IN - OUT =       2.0736E-08              IN - OUT =      -1.5718E-09

 PERCENT DISCREPANCY =           0.00     PERCENT DISCREPANCY =          -0.00




         TIME SUMMARY AT END OF TIME STEP    1 IN STRESS PERIOD   78
                    SECONDS     MINUTES      HOURS       DAYS        YEARS
                    -----------------------------------------------------------
   TIME STEP LENGTH  86400.      1440.0      24.000      1.0000     2.73785E-03
 STRESS PERIOD TIME  86400.      1440.0      24.000      1.0000     2.73785E-03
         TOTAL TIME 6.73920E+06 1.12320E+05  1872.0      78.000     0.21355    


end timestep


start timestep kper="79" kstp="1" mode="normal"


 OUTPUT CONTROL FOR STRESS PERIOD 79 IS REPEATED USING SETTINGS FROM A PREVIOUS STRESS PERIOD.


 STRESS PERIOD 79 IS TRANSIENT

 UBDSV1 SAVING     FLOW-JA-FACE ON UNIT   1016 AT TIME STEP      1, STRESS PERIOD     79
 UBDSV06 SAVING              RIV IN MODEL GWF_1            PACKAGE GWF_1           CONNECTED TO MODEL GWF_1            PACKAGE RIV-1            ON UNIT   1016 AT TIME STEP      1, STRESS PERIOD     79
 UBDSV06 SAVING              RCH IN MODEL GWF_1            PACKAGE GWF_1           CONNECTED TO MODEL GWF_1            PACKAGE RCH_MSW          ON UNIT   1016 AT TIME STEP      1, STRESS PERIOD     79

 HEAD WILL BE SAVED ON UNIT 1017 AT END OF TIME STEP    1, STRESS PERIOD   79


  VOLUME BUDGET FOR ENTIRE MODEL AT END OF TIME STEP    1, STRESS PERIOD  79
  ---------------------------------------------------------------------------------------------------

     CUMULATIVE VOLUME      L**3       RATES FOR THIS TIME STEP      L**3/T          PACKAGE NAME    
     ------------------                 ------------------------                     ----------------

           IN:                                      IN:
           ---                                      ---
              STO-SS =          50.0011                STO-SS =           0.0000     STORAGE                          
                 RIV =           0.0000                   RIV =           0.0000     RIV-1                            
                 RCH =       23132.9243                   RCH =         212.5808     RCH_MSW                          

            TOTAL IN =       23182.9254              TOTAL IN =         212.5808

          OUT:                                     OUT:
          ----                                     ----
              STO-SS =       23160.6658                STO-SS =         212.5808     STORAGE                          
                 RIV =           0.0000                   RIV =           0.0000     RIV-1                            
                 RCH =          22.2596                   RCH =           0.0000     RCH_MSW                          

           TOTAL OUT =       23182.9254             TOTAL OUT =         212.5808

            IN - OUT =       1.4305E-08              IN - OUT =      -6.4327E-09

 PERCENT DISCREPANCY =           0.00     PERCENT DISCREPANCY =          -0.00




         TIME SUMMARY AT END OF TIME STEP    1 IN STRESS PERIOD   79
                    SECONDS     MINUTES      HOURS       DAYS        YEARS
                    -----------------------------------------------------------
   TIME STEP LENGTH  86400.      1440.0      24.000      1.0000     2.73785E-03
 STRESS PERIOD TIME  86400.      1440.0      24.000      1.0000     2.73785E-03
         TOTAL TIME 6.82560E+06 1.13760E+05  1896.0      79.000     0.21629    


end timestep


start timestep kper="80" kstp="1" mode="normal"


 OUTPUT CONTROL FOR STRESS PERIOD 80 IS REPEATED USING SETTINGS FROM A PREVIOUS STRESS PERIOD.


 STRESS PERIOD 80 IS TRANSIENT

 UBDSV1 SAVING     FLOW-JA-FACE ON UNIT   1016 AT TIME STEP      1, STRESS PERIOD     80
 UBDSV06 SAVING              RIV IN MODEL GWF_1            PACKAGE GWF_1           CONNECTED TO MODEL GWF_1            PACKAGE RIV-1            ON UNIT   1016 AT TIME STEP      1, STRESS PERIOD     80
 UBDSV06 SAVING              RCH IN MODEL GWF_1            PACKAGE GWF_1           CONNECTED TO MODEL GWF_1            PACKAGE RCH_MSW          ON UNIT   1016 AT TIME STEP      1, STRESS PERIOD     80

 HEAD WILL BE SAVED ON UNIT 1017 AT END OF TIME STEP    1, STRESS PERIOD   80


  VOLUME BUDGET FOR ENTIRE MODEL AT END OF TIME STEP    1, STRESS PERIOD  80
  ---------------------------------------------------------------------------------------------------

     CUMULATIVE VOLUME      L**3       RATES FOR THIS TIME STEP      L**3/T          PACKAGE NAME    
     ------------------                 ------------------------                     ----------------

           IN:                                      IN:
           ---                                      ---
              STO-SS =          50.0011                STO-SS =           0.0000     STORAGE                          
                 RIV =           0.0000                   RIV =           0.0000     RIV-1                            
                 RCH =       23354.6008                   RCH =         221.6765     RCH_MSW                          

            TOTAL IN =       23404.6019              TOTAL IN =         221.6765

          OUT:                                     OUT:
          ----                                     ----
              STO-SS =       23382.3423                STO-SS =         221.6765     STORAGE                          
                 RIV =           0.0000                   RIV =           0.0000     RIV-1                            
                 RCH =          22.2596                   RCH =           0.0000     RCH_MSW                          

           TOTAL OUT =       23404.6019             TOTAL OUT =         221.6765

            IN - OUT =       1.8714E-08              IN - OUT =       4.4106E-09

 PERCENT DISCREPANCY =           0.00     PERCENT DISCREPANCY =           0.00




         TIME SUMMARY AT END OF TIME STEP    1 IN STRESS PERIOD   80
                    SECONDS     MINUTES      HOURS       DAYS        YEARS
                    -----------------------------------------------------------
   TIME STEP LENGTH  86400.      1440.0      24.000      1.0000     2.73785E-03
 STRESS PERIOD TIME  86400.      1440.0      24.000      1.0000     2.73785E-03
         TOTAL TIME 6.91200E+06 1.15200E+05  1920.0      80.000     0.21903    


end timestep


start timestep kper="81" kstp="1" mode="normal"


 OUTPUT CONTROL FOR STRESS PERIOD 81 IS REPEATED USING SETTINGS FROM A PREVIOUS STRESS PERIOD.


 STRESS PERIOD 81 IS TRANSIENT

 UBDSV1 SAVING     FLOW-JA-FACE ON UNIT   1016 AT TIME STEP      1, STRESS PERIOD     81
 UBDSV06 SAVING              RIV IN MODEL GWF_1            PACKAGE GWF_1           CONNECTED TO MODEL GWF_1            PACKAGE RIV-1            ON UNIT   1016 AT TIME STEP      1, STRESS PERIOD     81
 UBDSV06 SAVING              RCH IN MODEL GWF_1            PACKAGE GWF_1           CONNECTED TO MODEL GWF_1            PACKAGE RCH_MSW          ON UNIT   1016 AT TIME STEP      1, STRESS PERIOD     81

 HEAD WILL BE SAVED ON UNIT 1017 AT END OF TIME STEP    1, STRESS PERIOD   81


  VOLUME BUDGET FOR ENTIRE MODEL AT END OF TIME STEP    1, STRESS PERIOD  81
  ---------------------------------------------------------------------------------------------------

     CUMULATIVE VOLUME      L**3       RATES FOR THIS TIME STEP      L**3/T          PACKAGE NAME    
     ------------------                 ------------------------                     ----------------

           IN:                                      IN:
           ---                                      ---
              STO-SS =          50.0011                STO-SS =           0.0000     STORAGE                          
                 RIV =           0.0000                   RIV =           0.0000     RIV-1                            
                 RCH =       23546.9171                   RCH =         192.3163     RCH_MSW                          

            TOTAL IN =       23596.9182              TOTAL IN =         192.3163

          OUT:                                     OUT:
          ----                                     ----
              STO-SS =       23574.6586                STO-SS =         192.3163     STORAGE                          
                 RIV =           0.0000                   RIV =           0.0000     RIV-1                            
                 RCH =          22.2596                   RCH =           0.0000     RCH_MSW                          

           TOTAL OUT =       23596.9182             TOTAL OUT =         192.3163

            IN - OUT =       4.5489E-08              IN - OUT =       2.6775E-08

 PERCENT DISCREPANCY =           0.00     PERCENT DISCREPANCY =           0.00




         TIME SUMMARY AT END OF TIME STEP    1 IN STRESS PERIOD   81
                    SECONDS     MINUTES      HOURS       DAYS        YEARS
                    -----------------------------------------------------------
   TIME STEP LENGTH  86400.      1440.0      24.000      1.0000     2.73785E-03
 STRESS PERIOD TIME  86400.      1440.0      24.000      1.0000     2.73785E-03
         TOTAL TIME 6.99840E+06 1.16640E+05  1944.0      81.000     0.22177    


end timestep


start timestep kper="82" kstp="1" mode="normal"


 OUTPUT CONTROL FOR STRESS PERIOD 82 IS REPEATED USING SETTINGS FROM A PREVIOUS STRESS PERIOD.


 STRESS PERIOD 82 IS TRANSIENT

 UBDSV1 SAVING     FLOW-JA-FACE ON UNIT   1016 AT TIME STEP      1, STRESS PERIOD     82
 UBDSV06 SAVING              RIV IN MODEL GWF_1            PACKAGE GWF_1           CONNECTED TO MODEL GWF_1            PACKAGE RIV-1            ON UNIT   1016 AT TIME STEP      1, STRESS PERIOD     82
 UBDSV06 SAVING              RCH IN MODEL GWF_1            PACKAGE GWF_1           CONNECTED TO MODEL GWF_1            PACKAGE RCH_MSW          ON UNIT   1016 AT TIME STEP      1, STRESS PERIOD     82

 HEAD WILL BE SAVED ON UNIT 1017 AT END OF TIME STEP    1, STRESS PERIOD   82


  VOLUME BUDGET FOR ENTIRE MODEL AT END OF TIME STEP    1, STRESS PERIOD  82
  ---------------------------------------------------------------------------------------------------

     CUMULATIVE VOLUME      L**3       RATES FOR THIS TIME STEP      L**3/T          PACKAGE NAME    
     ------------------                 ------------------------                     ----------------

           IN:                                      IN:
           ---                                      ---
              STO-SS =          50.0011                STO-SS =           0.0000     STORAGE                          
                 RIV =           0.0000                   RIV =           0.0000     RIV-1                            
                 RCH =       23695.2805                   RCH =         148.3634     RCH_MSW                          

            TOTAL IN =       23745.2815              TOTAL IN =         148.3634

          OUT:                                     OUT:
          ----                                     ----
              STO-SS =       23723.0219                STO-SS =         148.3634     STORAGE                          
                 RIV =           0.0000                   RIV =           0.0000     RIV-1                            
                 RCH =          22.2596                   RCH =           0.0000     RCH_MSW                          

           TOTAL OUT =       23745.2815             TOTAL OUT =         148.3634

            IN - OUT =       5.8273E-08              IN - OUT =       1.2785E-08

 PERCENT DISCREPANCY =           0.00     PERCENT DISCREPANCY =           0.00




         TIME SUMMARY AT END OF TIME STEP    1 IN STRESS PERIOD   82
                    SECONDS     MINUTES      HOURS       DAYS        YEARS
                    -----------------------------------------------------------
   TIME STEP LENGTH  86400.      1440.0      24.000      1.0000     2.73785E-03
 STRESS PERIOD TIME  86400.      1440.0      24.000      1.0000     2.73785E-03
         TOTAL TIME 7.08480E+06 1.18080E+05  1968.0      82.000     0.22450    


end timestep


start timestep kper="83" kstp="1" mode="normal"


 OUTPUT CONTROL FOR STRESS PERIOD 83 IS REPEATED USING SETTINGS FROM A PREVIOUS STRESS PERIOD.


 STRESS PERIOD 83 IS TRANSIENT

 UBDSV1 SAVING     FLOW-JA-FACE ON UNIT   1016 AT TIME STEP      1, STRESS PERIOD     83
 UBDSV06 SAVING              RIV IN MODEL GWF_1            PACKAGE GWF_1           CONNECTED TO MODEL GWF_1            PACKAGE RIV-1            ON UNIT   1016 AT TIME STEP      1, STRESS PERIOD     83
 UBDSV06 SAVING              RCH IN MODEL GWF_1            PACKAGE GWF_1           CONNECTED TO MODEL GWF_1            PACKAGE RCH_MSW          ON UNIT   1016 AT TIME STEP      1, STRESS PERIOD     83

 HEAD WILL BE SAVED ON UNIT 1017 AT END OF TIME STEP    1, STRESS PERIOD   83


  VOLUME BUDGET FOR ENTIRE MODEL AT END OF TIME STEP    1, STRESS PERIOD  83
  ---------------------------------------------------------------------------------------------------

     CUMULATIVE VOLUME      L**3       RATES FOR THIS TIME STEP      L**3/T          PACKAGE NAME    
     ------------------                 ------------------------                     ----------------

           IN:                                      IN:
           ---                                      ---
              STO-SS =          50.0011                STO-SS =           0.0000     STORAGE                          
                 RIV =           0.0000                   RIV =           0.0000     RIV-1                            
                 RCH =       23833.7436                   RCH =         138.4631     RCH_MSW                          

            TOTAL IN =       23883.7447              TOTAL IN =         138.4631

          OUT:                                     OUT:
          ----                                     ----
              STO-SS =       23861.4851                STO-SS =         138.4631     STORAGE                          
                 RIV =           0.0000                   RIV =           0.0000     RIV-1                            
                 RCH =          22.2596                   RCH =           0.0000     RCH_MSW                          

           TOTAL OUT =       23883.7447             TOTAL OUT =         138.4631

            IN - OUT =       6.2508E-08              IN - OUT =       4.2345E-09

 PERCENT DISCREPANCY =           0.00     PERCENT DISCREPANCY =           0.00




         TIME SUMMARY AT END OF TIME STEP    1 IN STRESS PERIOD   83
                    SECONDS     MINUTES      HOURS       DAYS        YEARS
                    -----------------------------------------------------------
   TIME STEP LENGTH  86400.      1440.0      24.000      1.0000     2.73785E-03
 STRESS PERIOD TIME  86400.      1440.0      24.000      1.0000     2.73785E-03
         TOTAL TIME 7.17120E+06 1.19520E+05  1992.0      83.000     0.22724    


end timestep


start timestep kper="84" kstp="1" mode="normal"


 OUTPUT CONTROL FOR STRESS PERIOD 84 IS REPEATED USING SETTINGS FROM A PREVIOUS STRESS PERIOD.


 STRESS PERIOD 84 IS TRANSIENT

 UBDSV1 SAVING     FLOW-JA-FACE ON UNIT   1016 AT TIME STEP      1, STRESS PERIOD     84
 UBDSV06 SAVING              RIV IN MODEL GWF_1            PACKAGE GWF_1           CONNECTED TO MODEL GWF_1            PACKAGE RIV-1            ON UNIT   1016 AT TIME STEP      1, STRESS PERIOD     84
 UBDSV06 SAVING              RCH IN MODEL GWF_1            PACKAGE GWF_1           CONNECTED TO MODEL GWF_1            PACKAGE RCH_MSW          ON UNIT   1016 AT TIME STEP      1, STRESS PERIOD     84

 HEAD WILL BE SAVED ON UNIT 1017 AT END OF TIME STEP    1, STRESS PERIOD   84


  VOLUME BUDGET FOR ENTIRE MODEL AT END OF TIME STEP    1, STRESS PERIOD  84
  ---------------------------------------------------------------------------------------------------

     CUMULATIVE VOLUME      L**3       RATES FOR THIS TIME STEP      L**3/T          PACKAGE NAME    
     ------------------                 ------------------------                     ----------------

           IN:                                      IN:
           ---                                      ---
              STO-SS =          50.0011                STO-SS =           0.0000     STORAGE                          
                 RIV =           0.0000                   RIV =           0.0000     RIV-1                            
                 RCH =       24015.3467                   RCH =         181.6031     RCH_MSW                          

            TOTAL IN =       24065.3478              TOTAL IN =         181.6031

          OUT:                                     OUT:
          ----                                     ----
              STO-SS =       24043.0882                STO-SS =         181.6031     STORAGE                          
                 RIV =           0.0000                   RIV =           0.0000     RIV-1                            
                 RCH =          22.2596                   RCH =           0.0000     RCH_MSW                          

           TOTAL OUT =       24065.3478             TOTAL OUT =         181.6031

            IN - OUT =       1.2532E-07              IN - OUT =       6.2817E-08

 PERCENT DISCREPANCY =           0.00     PERCENT DISCREPANCY =           0.00




         TIME SUMMARY AT END OF TIME STEP    1 IN STRESS PERIOD   84
                    SECONDS     MINUTES      HOURS       DAYS        YEARS
                    -----------------------------------------------------------
   TIME STEP LENGTH  86400.      1440.0      24.000      1.0000     2.73785E-03
 STRESS PERIOD TIME  86400.      1440.0      24.000      1.0000     2.73785E-03
         TOTAL TIME 7.25760E+06 1.20960E+05  2016.0      84.000     0.22998    


end timestep


start timestep kper="85" kstp="1" mode="normal"


 OUTPUT CONTROL FOR STRESS PERIOD 85 IS REPEATED USING SETTINGS FROM A PREVIOUS STRESS PERIOD.


 STRESS PERIOD 85 IS TRANSIENT

 UBDSV1 SAVING     FLOW-JA-FACE ON UNIT   1016 AT TIME STEP      1, STRESS PERIOD     85
 UBDSV06 SAVING              RIV IN MODEL GWF_1            PACKAGE GWF_1           CONNECTED TO MODEL GWF_1            PACKAGE RIV-1            ON UNIT   1016 AT TIME STEP      1, STRESS PERIOD     85
 UBDSV06 SAVING              RCH IN MODEL GWF_1            PACKAGE GWF_1           CONNECTED TO MODEL GWF_1            PACKAGE RCH_MSW          ON UNIT   1016 AT TIME STEP      1, STRESS PERIOD     85

 HEAD WILL BE SAVED ON UNIT 1017 AT END OF TIME STEP    1, STRESS PERIOD   85


  VOLUME BUDGET FOR ENTIRE MODEL AT END OF TIME STEP    1, STRESS PERIOD  85
  ---------------------------------------------------------------------------------------------------

     CUMULATIVE VOLUME      L**3       RATES FOR THIS TIME STEP      L**3/T          PACKAGE NAME    
     ------------------                 ------------------------                     ----------------

           IN:                                      IN:
           ---                                      ---
              STO-SS =          50.0011                STO-SS =           0.0000     STORAGE                          
                 RIV =           0.0000                   RIV =           0.0000     RIV-1                            
                 RCH =       24204.5984                   RCH =         189.2517     RCH_MSW                          

            TOTAL IN =       24254.5995              TOTAL IN =         189.2517

          OUT:                                     OUT:
          ----                                     ----
              STO-SS =       24232.3399                STO-SS =         189.2517     STORAGE                          
                 RIV =           0.0000                   RIV =           0.0000     RIV-1                            
                 RCH =          22.2596                   RCH =           0.0000     RCH_MSW                          

           TOTAL OUT =       24254.5995             TOTAL OUT =         189.2517

            IN - OUT =       1.2058E-07              IN - OUT =      -4.7471E-09

 PERCENT DISCREPANCY =           0.00     PERCENT DISCREPANCY =          -0.00




         TIME SUMMARY AT END OF TIME STEP    1 IN STRESS PERIOD   85
                    SECONDS     MINUTES      HOURS       DAYS        YEARS
                    -----------------------------------------------------------
   TIME STEP LENGTH  86400.      1440.0      24.000      1.0000     2.73785E-03
 STRESS PERIOD TIME  86400.      1440.0      24.000      1.0000     2.73785E-03
         TOTAL TIME 7.34400E+06 1.22400E+05  2040.0      85.000     0.23272    


end timestep


start timestep kper="86" kstp="1" mode="normal"


 OUTPUT CONTROL FOR STRESS PERIOD 86 IS REPEATED USING SETTINGS FROM A PREVIOUS STRESS PERIOD.


 STRESS PERIOD 86 IS TRANSIENT

 UBDSV1 SAVING     FLOW-JA-FACE ON UNIT   1016 AT TIME STEP      1, STRESS PERIOD     86
 UBDSV06 SAVING              RIV IN MODEL GWF_1            PACKAGE GWF_1           CONNECTED TO MODEL GWF_1            PACKAGE RIV-1            ON UNIT   1016 AT TIME STEP      1, STRESS PERIOD     86
 UBDSV06 SAVING              RCH IN MODEL GWF_1            PACKAGE GWF_1           CONNECTED TO MODEL GWF_1            PACKAGE RCH_MSW          ON UNIT   1016 AT TIME STEP      1, STRESS PERIOD     86

 HEAD WILL BE SAVED ON UNIT 1017 AT END OF TIME STEP    1, STRESS PERIOD   86


  VOLUME BUDGET FOR ENTIRE MODEL AT END OF TIME STEP    1, STRESS PERIOD  86
  ---------------------------------------------------------------------------------------------------

     CUMULATIVE VOLUME      L**3       RATES FOR THIS TIME STEP      L**3/T          PACKAGE NAME    
     ------------------                 ------------------------                     ----------------

           IN:                                      IN:
           ---                                      ---
              STO-SS =          50.0011                STO-SS =           0.0000     STORAGE                          
                 RIV =           0.0000                   RIV =           0.0000     RIV-1                            
                 RCH =       24361.9417                   RCH =         157.3432     RCH_MSW                          

            TOTAL IN =       24411.9427              TOTAL IN =         157.3432

          OUT:                                     OUT:
          ----                                     ----
              STO-SS =       24389.6831                STO-SS =         157.3432     STORAGE                          
                 RIV =           0.0000                   RIV =           0.0000     RIV-1                            
                 RCH =          22.2596                   RCH =           0.0000     RCH_MSW                          

           TOTAL OUT =       24411.9427             TOTAL OUT =         157.3432

            IN - OUT =       1.0845E-07              IN - OUT =      -1.2125E-08

 PERCENT DISCREPANCY =           0.00     PERCENT DISCREPANCY =          -0.00




         TIME SUMMARY AT END OF TIME STEP    1 IN STRESS PERIOD   86
                    SECONDS     MINUTES      HOURS       DAYS        YEARS
                    -----------------------------------------------------------
   TIME STEP LENGTH  86400.      1440.0      24.000      1.0000     2.73785E-03
 STRESS PERIOD TIME  86400.      1440.0      24.000      1.0000     2.73785E-03
         TOTAL TIME 7.43040E+06 1.23840E+05  2064.0      86.000     0.23546    


end timestep


start timestep kper="87" kstp="1" mode="normal"


 OUTPUT CONTROL FOR STRESS PERIOD 87 IS REPEATED USING SETTINGS FROM A PREVIOUS STRESS PERIOD.


 STRESS PERIOD 87 IS TRANSIENT

 UBDSV1 SAVING     FLOW-JA-FACE ON UNIT   1016 AT TIME STEP      1, STRESS PERIOD     87
 UBDSV06 SAVING              RIV IN MODEL GWF_1            PACKAGE GWF_1           CONNECTED TO MODEL GWF_1            PACKAGE RIV-1            ON UNIT   1016 AT TIME STEP      1, STRESS PERIOD     87
 UBDSV06 SAVING              RCH IN MODEL GWF_1            PACKAGE GWF_1           CONNECTED TO MODEL GWF_1            PACKAGE RCH_MSW          ON UNIT   1016 AT TIME STEP      1, STRESS PERIOD     87

 HEAD WILL BE SAVED ON UNIT 1017 AT END OF TIME STEP    1, STRESS PERIOD   87


  VOLUME BUDGET FOR ENTIRE MODEL AT END OF TIME STEP    1, STRESS PERIOD  87
  ---------------------------------------------------------------------------------------------------

     CUMULATIVE VOLUME      L**3       RATES FOR THIS TIME STEP      L**3/T          PACKAGE NAME    
     ------------------                 ------------------------                     ----------------

           IN:                                      IN:
           ---                                      ---
              STO-SS =          50.0011                STO-SS =           0.0000     STORAGE                          
                 RIV =           0.0000                   RIV =           0.0000     RIV-1                            
                 RCH =       24475.1688                   RCH =         113.2271     RCH_MSW                          

            TOTAL IN =       24525.1699              TOTAL IN =         113.2271

          OUT:                                     OUT:
          ----                                     ----
              STO-SS =       24502.9103                STO-SS =         113.2271     STORAGE                          
                 RIV =           0.0000                   RIV =           0.0000     RIV-1                            
                 RCH =          22.2596                   RCH =           0.0000     RCH_MSW                          

           TOTAL OUT =       24525.1699             TOTAL OUT =         113.2271

            IN - OUT =       1.0797E-07              IN - OUT =      -4.8280E-10

 PERCENT DISCREPANCY =           0.00     PERCENT DISCREPANCY =          -0.00




         TIME SUMMARY AT END OF TIME STEP    1 IN STRESS PERIOD   87
                    SECONDS     MINUTES      HOURS       DAYS        YEARS
                    -----------------------------------------------------------
   TIME STEP LENGTH  86400.      1440.0      24.000      1.0000     2.73785E-03
 STRESS PERIOD TIME  86400.      1440.0      24.000      1.0000     2.73785E-03
         TOTAL TIME 7.51680E+06 1.25280E+05  2088.0      87.000     0.23819    


end timestep


start timestep kper="88" kstp="1" mode="normal"


 OUTPUT CONTROL FOR STRESS PERIOD 88 IS REPEATED USING SETTINGS FROM A PREVIOUS STRESS PERIOD.


 STRESS PERIOD 88 IS TRANSIENT

 UBDSV1 SAVING     FLOW-JA-FACE ON UNIT   1016 AT TIME STEP      1, STRESS PERIOD     88
 UBDSV06 SAVING              RIV IN MODEL GWF_1            PACKAGE GWF_1           CONNECTED TO MODEL GWF_1            PACKAGE RIV-1            ON UNIT   1016 AT TIME STEP      1, STRESS PERIOD     88
 UBDSV06 SAVING              RCH IN MODEL GWF_1            PACKAGE GWF_1           CONNECTED TO MODEL GWF_1            PACKAGE RCH_MSW          ON UNIT   1016 AT TIME STEP      1, STRESS PERIOD     88

 HEAD WILL BE SAVED ON UNIT 1017 AT END OF TIME STEP    1, STRESS PERIOD   88


  VOLUME BUDGET FOR ENTIRE MODEL AT END OF TIME STEP    1, STRESS PERIOD  88
  ---------------------------------------------------------------------------------------------------

     CUMULATIVE VOLUME      L**3       RATES FOR THIS TIME STEP      L**3/T          PACKAGE NAME    
     ------------------                 ------------------------                     ----------------

           IN:                                      IN:
           ---                                      ---
              STO-SS =          63.7292                STO-SS =          13.7282     STORAGE                          
                 RIV =           0.0000                   RIV =           0.0000     RIV-1                            
                 RCH =       24556.6306                   RCH =          81.4618     RCH_MSW                          

            TOTAL IN =       24620.3598              TOTAL IN =          95.1900

          OUT:                                     OUT:
          ----                                     ----
              STO-SS =       24588.1765                STO-SS =          85.2662     STORAGE                          
                 RIV =           0.0000                   RIV =           0.0000     RIV-1                            
                 RCH =          32.1833                   RCH =           9.9238     RCH_MSW                          

           TOTAL OUT =       24620.3598             TOTAL OUT =          95.1900

            IN - OUT =       1.1490E-07              IN - OUT =       6.9310E-09

 PERCENT DISCREPANCY =           0.00     PERCENT DISCREPANCY =           0.00




         TIME SUMMARY AT END OF TIME STEP    1 IN STRESS PERIOD   88
                    SECONDS     MINUTES      HOURS       DAYS        YEARS
                    -----------------------------------------------------------
   TIME STEP LENGTH  86400.      1440.0      24.000      1.0000     2.73785E-03
 STRESS PERIOD TIME  86400.      1440.0      24.000      1.0000     2.73785E-03
         TOTAL TIME 7.60320E+06 1.26720E+05  2112.0      88.000     0.24093    


end timestep


start timestep kper="89" kstp="1" mode="normal"


 OUTPUT CONTROL FOR STRESS PERIOD 89 IS REPEATED USING SETTINGS FROM A PREVIOUS STRESS PERIOD.


 STRESS PERIOD 89 IS TRANSIENT

 UBDSV1 SAVING     FLOW-JA-FACE ON UNIT   1016 AT TIME STEP      1, STRESS PERIOD     89
 UBDSV06 SAVING              RIV IN MODEL GWF_1            PACKAGE GWF_1           CONNECTED TO MODEL GWF_1            PACKAGE RIV-1            ON UNIT   1016 AT TIME STEP      1, STRESS PERIOD     89
 UBDSV06 SAVING              RCH IN MODEL GWF_1            PACKAGE GWF_1           CONNECTED TO MODEL GWF_1            PACKAGE RCH_MSW          ON UNIT   1016 AT TIME STEP      1, STRESS PERIOD     89

 HEAD WILL BE SAVED ON UNIT 1017 AT END OF TIME STEP    1, STRESS PERIOD   89


  VOLUME BUDGET FOR ENTIRE MODEL AT END OF TIME STEP    1, STRESS PERIOD  89
  ---------------------------------------------------------------------------------------------------

     CUMULATIVE VOLUME      L**3       RATES FOR THIS TIME STEP      L**3/T          PACKAGE NAME    
     ------------------                 ------------------------                     ----------------

           IN:                                      IN:
           ---                                      ---
              STO-SS =          88.3379                STO-SS =          24.6086     STORAGE                          
                 RIV =           0.0000                   RIV =           0.0000     RIV-1                            
                 RCH =       24616.6550                   RCH =          60.0244     RCH_MSW                          

            TOTAL IN =       24704.9929              TOTAL IN =          84.6331

          OUT:                                     OUT:
          ----                                     ----
              STO-SS =       24651.9299                STO-SS =          63.7534     STORAGE                          
                 RIV =           0.0000                   RIV =           0.0000     RIV-1                            
                 RCH =          53.0630                   RCH =          20.8796     RCH_MSW                          

           TOTAL OUT =       24704.9929             TOTAL OUT =          84.6331

            IN - OUT =       1.2454E-07              IN - OUT =       9.6448E-09

 PERCENT DISCREPANCY =           0.00     PERCENT DISCREPANCY =           0.00




         TIME SUMMARY AT END OF TIME STEP    1 IN STRESS PERIOD   89
                    SECONDS     MINUTES      HOURS       DAYS        YEARS
                    -----------------------------------------------------------
   TIME STEP LENGTH  86400.      1440.0      24.000      1.0000     2.73785E-03
 STRESS PERIOD TIME  86400.      1440.0      24.000      1.0000     2.73785E-03
         TOTAL TIME 7.68960E+06 1.28160E+05  2136.0      89.000     0.24367    


end timestep


start timestep kper="90" kstp="1" mode="normal"


 OUTPUT CONTROL FOR STRESS PERIOD 90 IS REPEATED USING SETTINGS FROM A PREVIOUS STRESS PERIOD.


 STRESS PERIOD 90 IS TRANSIENT

 UBDSV1 SAVING     FLOW-JA-FACE ON UNIT   1016 AT TIME STEP      1, STRESS PERIOD     90
 UBDSV06 SAVING              RIV IN MODEL GWF_1            PACKAGE GWF_1           CONNECTED TO MODEL GWF_1            PACKAGE RIV-1            ON UNIT   1016 AT TIME STEP      1, STRESS PERIOD     90
 UBDSV06 SAVING              RCH IN MODEL GWF_1            PACKAGE GWF_1           CONNECTED TO MODEL GWF_1            PACKAGE RCH_MSW          ON UNIT   1016 AT TIME STEP      1, STRESS PERIOD     90

 HEAD WILL BE SAVED ON UNIT 1017 AT END OF TIME STEP    1, STRESS PERIOD   90


  VOLUME BUDGET FOR ENTIRE MODEL AT END OF TIME STEP    1, STRESS PERIOD  90
  ---------------------------------------------------------------------------------------------------

     CUMULATIVE VOLUME      L**3       RATES FOR THIS TIME STEP      L**3/T          PACKAGE NAME    
     ------------------                 ------------------------                     ----------------

           IN:                                      IN:
           ---                                      ---
              STO-SS =         117.4016                STO-SS =          29.0637     STORAGE                          
                 RIV =           0.0000                   RIV =           0.0000     RIV-1                            
                 RCH =       24663.1736                   RCH =          46.5187     RCH_MSW                          

            TOTAL IN =       24780.5753              TOTAL IN =          75.5824

          OUT:                                     OUT:
          ----                                     ----
              STO-SS =       24705.4204                STO-SS =          53.4905     STORAGE                          
                 RIV =           0.0000                   RIV =           0.0000     RIV-1                            
                 RCH =          75.1549                   RCH =          22.0919     RCH_MSW                          

           TOTAL OUT =       24780.5753             TOTAL OUT =          75.5824

            IN - OUT =       1.2802E-07              IN - OUT =       3.4782E-09

 PERCENT DISCREPANCY =           0.00     PERCENT DISCREPANCY =           0.00




         TIME SUMMARY AT END OF TIME STEP    1 IN STRESS PERIOD   90
                    SECONDS     MINUTES      HOURS       DAYS        YEARS
                    -----------------------------------------------------------
   TIME STEP LENGTH  86400.      1440.0      24.000      1.0000     2.73785E-03
 STRESS PERIOD TIME  86400.      1440.0      24.000      1.0000     2.73785E-03
         TOTAL TIME 7.77600E+06 1.29600E+05  2160.0      90.000     0.24641    


end timestep


start timestep kper="91" kstp="1" mode="normal"


 OUTPUT CONTROL FOR STRESS PERIOD 91 IS REPEATED USING SETTINGS FROM A PREVIOUS STRESS PERIOD.


 STRESS PERIOD 91 IS TRANSIENT

 UBDSV1 SAVING     FLOW-JA-FACE ON UNIT   1016 AT TIME STEP      1, STRESS PERIOD     91
 UBDSV06 SAVING              RIV IN MODEL GWF_1            PACKAGE GWF_1           CONNECTED TO MODEL GWF_1            PACKAGE RIV-1            ON UNIT   1016 AT TIME STEP      1, STRESS PERIOD     91
 UBDSV06 SAVING              RCH IN MODEL GWF_1            PACKAGE GWF_1           CONNECTED TO MODEL GWF_1            PACKAGE RCH_MSW          ON UNIT   1016 AT TIME STEP      1, STRESS PERIOD     91

 HEAD WILL BE SAVED ON UNIT 1017 AT END OF TIME STEP    1, STRESS PERIOD   91


  VOLUME BUDGET FOR ENTIRE MODEL AT END OF TIME STEP    1, STRESS PERIOD  91
  ---------------------------------------------------------------------------------------------------

     CUMULATIVE VOLUME      L**3       RATES FOR THIS TIME STEP      L**3/T          PACKAGE NAME    
     ------------------                 ------------------------                     ----------------

           IN:                                      IN:
           ---                                      ---
              STO-SS =         154.7055                STO-SS =          37.3039     STORAGE                          
                 RIV =           0.0000                   RIV =           0.0000     RIV-1                            
                 RCH =       24702.0368                   RCH =          38.8632     RCH_MSW                          

            TOTAL IN =       24856.7423              TOTAL IN =          76.1670

          OUT:                                     OUT:
          ----                                     ----
              STO-SS =       24756.8178                STO-SS =          51.3974     STORAGE                          
                 RIV =           0.0000                   RIV =           0.0000     RIV-1                            
                 RCH =          99.9245                   RCH =          24.7696     RCH_MSW                          

           TOTAL OUT =       24856.7423             TOTAL OUT =          76.1670

            IN - OUT =       1.3391E-07              IN - OUT =       5.8904E-09

 PERCENT DISCREPANCY =           0.00     PERCENT DISCREPANCY =           0.00




         TIME SUMMARY AT END OF TIME STEP    1 IN STRESS PERIOD   91
                    SECONDS     MINUTES      HOURS       DAYS        YEARS
                    -----------------------------------------------------------
   TIME STEP LENGTH  86400.      1440.0      24.000      1.0000     2.73785E-03
 STRESS PERIOD TIME  86400.      1440.0      24.000      1.0000     2.73785E-03
         TOTAL TIME 7.86240E+06 1.31040E+05  2184.0      91.000     0.24914    


end timestep


start timestep kper="92" kstp="1" mode="normal"


 OUTPUT CONTROL FOR STRESS PERIOD 92 IS REPEATED USING SETTINGS FROM A PREVIOUS STRESS PERIOD.


 STRESS PERIOD 92 IS TRANSIENT

 UBDSV1 SAVING     FLOW-JA-FACE ON UNIT   1016 AT TIME STEP      1, STRESS PERIOD     92
 UBDSV06 SAVING              RIV IN MODEL GWF_1            PACKAGE GWF_1           CONNECTED TO MODEL GWF_1            PACKAGE RIV-1            ON UNIT   1016 AT TIME STEP      1, STRESS PERIOD     92
 UBDSV06 SAVING              RCH IN MODEL GWF_1            PACKAGE GWF_1           CONNECTED TO MODEL GWF_1            PACKAGE RCH_MSW          ON UNIT   1016 AT TIME STEP      1, STRESS PERIOD     92

 HEAD WILL BE SAVED ON UNIT 1017 AT END OF TIME STEP    1, STRESS PERIOD   92


  VOLUME BUDGET FOR ENTIRE MODEL AT END OF TIME STEP    1, STRESS PERIOD  92
  ---------------------------------------------------------------------------------------------------

     CUMULATIVE VOLUME      L**3       RATES FOR THIS TIME STEP      L**3/T          PACKAGE NAME    
     ------------------                 ------------------------                     ----------------

           IN:                                      IN:
           ---                                      ---
              STO-SS =         207.8708                STO-SS =          53.1653     STORAGE                          
                 RIV =           0.0000                   RIV =           0.0000     RIV-1                            
                 RCH =       24738.2737                   RCH =          36.2369     RCH_MSW                          

            TOTAL IN =       24946.1445              TOTAL IN =          89.4022

          OUT:                                     OUT:
          ----                                     ----
              STO-SS =       24805.7876                STO-SS =          48.9698     STORAGE                          
                 RIV =           0.0000                   RIV =           0.0000     RIV-1                            
                 RCH =         140.3569                   RCH =          40.4324     RCH_MSW                          

           TOTAL OUT =       24946.1445             TOTAL OUT =          89.4022

            IN - OUT =       1.3789E-07              IN - OUT =       3.9783E-09

 PERCENT DISCREPANCY =           0.00     PERCENT DISCREPANCY =           0.00




         TIME SUMMARY AT END OF TIME STEP    1 IN STRESS PERIOD   92
                    SECONDS     MINUTES      HOURS       DAYS        YEARS
                    -----------------------------------------------------------
   TIME STEP LENGTH  86400.      1440.0      24.000      1.0000     2.73785E-03
 STRESS PERIOD TIME  86400.      1440.0      24.000      1.0000     2.73785E-03
         TOTAL TIME 7.94880E+06 1.32480E+05  2208.0      92.000     0.25188    


end timestep


start timestep kper="93" kstp="1" mode="normal"


 OUTPUT CONTROL FOR STRESS PERIOD 93 IS REPEATED USING SETTINGS FROM A PREVIOUS STRESS PERIOD.


 STRESS PERIOD 93 IS TRANSIENT

 UBDSV1 SAVING     FLOW-JA-FACE ON UNIT   1016 AT TIME STEP      1, STRESS PERIOD     93
 UBDSV06 SAVING              RIV IN MODEL GWF_1            PACKAGE GWF_1           CONNECTED TO MODEL GWF_1            PACKAGE RIV-1            ON UNIT   1016 AT TIME STEP      1, STRESS PERIOD     93
 UBDSV06 SAVING              RCH IN MODEL GWF_1            PACKAGE GWF_1           CONNECTED TO MODEL GWF_1            PACKAGE RCH_MSW          ON UNIT   1016 AT TIME STEP      1, STRESS PERIOD     93

 HEAD WILL BE SAVED ON UNIT 1017 AT END OF TIME STEP    1, STRESS PERIOD   93


  VOLUME BUDGET FOR ENTIRE MODEL AT END OF TIME STEP    1, STRESS PERIOD  93
  ---------------------------------------------------------------------------------------------------

     CUMULATIVE VOLUME      L**3       RATES FOR THIS TIME STEP      L**3/T          PACKAGE NAME    
     ------------------                 ------------------------                     ----------------

           IN:                                      IN:
           ---                                      ---
              STO-SS =         266.0717                STO-SS =          58.2009     STORAGE                          
                 RIV =           0.0000                   RIV =           0.0000     RIV-1                            
                 RCH =       24772.2937                   RCH =          34.0200     RCH_MSW                          

            TOTAL IN =       25038.3654              TOTAL IN =          92.2209

          OUT:                                     OUT:
          ----                                     ----
              STO-SS =       24852.3856                STO-SS =          46.5980     STORAGE                          
                 RIV =           0.0000                   RIV =           0.0000     RIV-1                            
                 RCH =         185.9798                   RCH =          45.6229     RCH_MSW                          

           TOTAL OUT =       25038.3654             TOTAL OUT =          92.2209

            IN - OUT =       1.3969E-07              IN - OUT =       1.8003E-09

 PERCENT DISCREPANCY =           0.00     PERCENT DISCREPANCY =           0.00




         TIME SUMMARY AT END OF TIME STEP    1 IN STRESS PERIOD   93
                    SECONDS     MINUTES      HOURS       DAYS        YEARS
                    -----------------------------------------------------------
   TIME STEP LENGTH  86400.      1440.0      24.000      1.0000     2.73785E-03
 STRESS PERIOD TIME  86400.      1440.0      24.000      1.0000     2.73785E-03
         TOTAL TIME 8.03520E+06 1.33920E+05  2232.0      93.000     0.25462    


end timestep


start timestep kper="94" kstp="1" mode="normal"


 OUTPUT CONTROL FOR STRESS PERIOD 94 IS REPEATED USING SETTINGS FROM A PREVIOUS STRESS PERIOD.


 STRESS PERIOD 94 IS TRANSIENT

 UBDSV1 SAVING     FLOW-JA-FACE ON UNIT   1016 AT TIME STEP      1, STRESS PERIOD     94
 UBDSV06 SAVING              RIV IN MODEL GWF_1            PACKAGE GWF_1           CONNECTED TO MODEL GWF_1            PACKAGE RIV-1            ON UNIT   1016 AT TIME STEP      1, STRESS PERIOD     94
 UBDSV06 SAVING              RCH IN MODEL GWF_1            PACKAGE GWF_1           CONNECTED TO MODEL GWF_1            PACKAGE RCH_MSW          ON UNIT   1016 AT TIME STEP      1, STRESS PERIOD     94

 HEAD WILL BE SAVED ON UNIT 1017 AT END OF TIME STEP    1, STRESS PERIOD   94


  VOLUME BUDGET FOR ENTIRE MODEL AT END OF TIME STEP    1, STRESS PERIOD  94
  ---------------------------------------------------------------------------------------------------

     CUMULATIVE VOLUME      L**3       RATES FOR THIS TIME STEP      L**3/T          PACKAGE NAME    
     ------------------                 ------------------------                     ----------------

           IN:                                      IN:
           ---                                      ---
              STO-SS =         333.3175                STO-SS =          67.2458     STORAGE                          
                 RIV =           0.0000                   RIV =           0.0000     RIV-1                            
                 RCH =       24804.0494                   RCH =          31.7557     RCH_MSW                          

            TOTAL IN =       25137.3668              TOTAL IN =          99.0014

          OUT:                                     OUT:
          ----                                     ----
              STO-SS =       24896.5568                STO-SS =          44.1712     STORAGE                          
                 RIV =           0.0000                   RIV =           0.0000     RIV-1                            
                 RCH =         240.8101                   RCH =          54.8303     RCH_MSW                          

           TOTAL OUT =       25137.3668             TOTAL OUT =          99.0014

            IN - OUT =       1.4158E-07              IN - OUT =       1.8923E-09

 PERCENT DISCREPANCY =           0.00     PERCENT DISCREPANCY =           0.00




         TIME SUMMARY AT END OF TIME STEP    1 IN STRESS PERIOD   94
                    SECONDS     MINUTES      HOURS       DAYS        YEARS
                    -----------------------------------------------------------
   TIME STEP LENGTH  86400.      1440.0      24.000      1.0000     2.73785E-03
 STRESS PERIOD TIME  86400.      1440.0      24.000      1.0000     2.73785E-03
         TOTAL TIME 8.12160E+06 1.35360E+05  2256.0      94.000     0.25736    


end timestep


start timestep kper="95" kstp="1" mode="normal"


 OUTPUT CONTROL FOR STRESS PERIOD 95 IS REPEATED USING SETTINGS FROM A PREVIOUS STRESS PERIOD.


 STRESS PERIOD 95 IS TRANSIENT

 UBDSV1 SAVING     FLOW-JA-FACE ON UNIT   1016 AT TIME STEP      1, STRESS PERIOD     95
 UBDSV06 SAVING              RIV IN MODEL GWF_1            PACKAGE GWF_1           CONNECTED TO MODEL GWF_1            PACKAGE RIV-1            ON UNIT   1016 AT TIME STEP      1, STRESS PERIOD     95
 UBDSV06 SAVING              RCH IN MODEL GWF_1            PACKAGE GWF_1           CONNECTED TO MODEL GWF_1            PACKAGE RCH_MSW          ON UNIT   1016 AT TIME STEP      1, STRESS PERIOD     95

 HEAD WILL BE SAVED ON UNIT 1017 AT END OF TIME STEP    1, STRESS PERIOD   95


  VOLUME BUDGET FOR ENTIRE MODEL AT END OF TIME STEP    1, STRESS PERIOD  95
  ---------------------------------------------------------------------------------------------------

     CUMULATIVE VOLUME      L**3       RATES FOR THIS TIME STEP      L**3/T          PACKAGE NAME    
     ------------------                 ------------------------                     ----------------

           IN:                                      IN:
           ---                                      ---
              STO-SS =         404.3184                STO-SS =          71.0010     STORAGE                          
                 RIV =           0.0000                   RIV =           0.0000     RIV-1                            
                 RCH =       24833.8551                   RCH =          29.8057     RCH_MSW                          

            TOTAL IN =       25238.1735              TOTAL IN =         100.8067

          OUT:                                     OUT:
          ----                                     ----
              STO-SS =       24938.6149                STO-SS =          42.0581     STORAGE                          
                 RIV =           0.0000                   RIV =           0.0000     RIV-1                            
                 RCH =         299.5586                   RCH =          58.7486     RCH_MSW                          

           TOTAL OUT =       25238.1735             TOTAL OUT =         100.8067

            IN - OUT =       1.4256E-07              IN - OUT =       9.7803E-10

 PERCENT DISCREPANCY =           0.00     PERCENT DISCREPANCY =           0.00




         TIME SUMMARY AT END OF TIME STEP    1 IN STRESS PERIOD   95
                    SECONDS     MINUTES      HOURS       DAYS        YEARS
                    -----------------------------------------------------------
   TIME STEP LENGTH  86400.      1440.0      24.000      1.0000     2.73785E-03
 STRESS PERIOD TIME  86400.      1440.0      24.000      1.0000     2.73785E-03
         TOTAL TIME 8.20800E+06 1.36800E+05  2280.0      95.000     0.26010    


end timestep


start timestep kper="96" kstp="1" mode="normal"


 OUTPUT CONTROL FOR STRESS PERIOD 96 IS REPEATED USING SETTINGS FROM A PREVIOUS STRESS PERIOD.


 STRESS PERIOD 96 IS TRANSIENT

 UBDSV1 SAVING     FLOW-JA-FACE ON UNIT   1016 AT TIME STEP      1, STRESS PERIOD     96
 UBDSV06 SAVING              RIV IN MODEL GWF_1            PACKAGE GWF_1           CONNECTED TO MODEL GWF_1            PACKAGE RIV-1            ON UNIT   1016 AT TIME STEP      1, STRESS PERIOD     96
 UBDSV06 SAVING              RCH IN MODEL GWF_1            PACKAGE GWF_1           CONNECTED TO MODEL GWF_1            PACKAGE RCH_MSW          ON UNIT   1016 AT TIME STEP      1, STRESS PERIOD     96

 HEAD WILL BE SAVED ON UNIT 1017 AT END OF TIME STEP    1, STRESS PERIOD   96


  VOLUME BUDGET FOR ENTIRE MODEL AT END OF TIME STEP    1, STRESS PERIOD  96
  ---------------------------------------------------------------------------------------------------

     CUMULATIVE VOLUME      L**3       RATES FOR THIS TIME STEP      L**3/T          PACKAGE NAME    
     ------------------                 ------------------------                     ----------------

           IN:                                      IN:
           ---                                      ---
              STO-SS =         473.5816                STO-SS =          69.2632     STORAGE                          
                 RIV =           0.0000                   RIV =           0.0000     RIV-1                            
                 RCH =       24861.9210                   RCH =          28.0659     RCH_MSW                          

            TOTAL IN =       25335.5026              TOTAL IN =          97.3291

          OUT:                                     OUT:
          ----                                     ----
              STO-SS =       24978.7768                STO-SS =          40.1620     STORAGE                          
                 RIV =           0.0000                   RIV =           0.0000     RIV-1                            
                 RCH =         356.7258                   RCH =          57.1671     RCH_MSW                          

           TOTAL OUT =       25335.5026             TOTAL OUT =          97.3291

            IN - OUT =       1.5188E-07              IN - OUT =       9.3184E-09

 PERCENT DISCREPANCY =           0.00     PERCENT DISCREPANCY =           0.00




         TIME SUMMARY AT END OF TIME STEP    1 IN STRESS PERIOD   96
                    SECONDS     MINUTES      HOURS       DAYS        YEARS
                    -----------------------------------------------------------
   TIME STEP LENGTH  86400.      1440.0      24.000      1.0000     2.73785E-03
 STRESS PERIOD TIME  86400.      1440.0      24.000      1.0000     2.73785E-03
         TOTAL TIME 8.29440E+06 1.38240E+05  2304.0      96.000     0.26283    


end timestep


start timestep kper="97" kstp="1" mode="normal"


 OUTPUT CONTROL FOR STRESS PERIOD 97 IS REPEATED USING SETTINGS FROM A PREVIOUS STRESS PERIOD.


 STRESS PERIOD 97 IS TRANSIENT

 UBDSV1 SAVING     FLOW-JA-FACE ON UNIT   1016 AT TIME STEP      1, STRESS PERIOD     97
 UBDSV06 SAVING              RIV IN MODEL GWF_1            PACKAGE GWF_1           CONNECTED TO MODEL GWF_1            PACKAGE RIV-1            ON UNIT   1016 AT TIME STEP      1, STRESS PERIOD     97
 UBDSV06 SAVING              RCH IN MODEL GWF_1            PACKAGE GWF_1           CONNECTED TO MODEL GWF_1            PACKAGE RCH_MSW          ON UNIT   1016 AT TIME STEP      1, STRESS PERIOD     97

 HEAD WILL BE SAVED ON UNIT 1017 AT END OF TIME STEP    1, STRESS PERIOD   97


  VOLUME BUDGET FOR ENTIRE MODEL AT END OF TIME STEP    1, STRESS PERIOD  97
  ---------------------------------------------------------------------------------------------------

     CUMULATIVE VOLUME      L**3       RATES FOR THIS TIME STEP      L**3/T          PACKAGE NAME    
     ------------------                 ------------------------                     ----------------

           IN:                                      IN:
           ---                                      ---
              STO-SS =         543.5069                STO-SS =          69.9253     STORAGE                          
                 RIV =           0.0000                   RIV =           0.0000     RIV-1                            
                 RCH =       24888.2464                   RCH =          26.3253     RCH_MSW                          

            TOTAL IN =       25431.7533              TOTAL IN =          96.2507

          OUT:                                     OUT:
          ----                                     ----
              STO-SS =       25017.0452                STO-SS =          38.2684     STORAGE                          
                 RIV =           0.0000                   RIV =           0.0000     RIV-1                            
                 RCH =         414.7080                   RCH =          57.9823     RCH_MSW                          

           TOTAL OUT =       25431.7533             TOTAL OUT =          96.2507

            IN - OUT =       1.4508E-07              IN - OUT =      -6.7971E-09

 PERCENT DISCREPANCY =           0.00     PERCENT DISCREPANCY =          -0.00




         TIME SUMMARY AT END OF TIME STEP    1 IN STRESS PERIOD   97
                    SECONDS     MINUTES      HOURS       DAYS        YEARS
                    -----------------------------------------------------------
   TIME STEP LENGTH  86400.      1440.0      24.000      1.0000     2.73785E-03
 STRESS PERIOD TIME  86400.      1440.0      24.000      1.0000     2.73785E-03
         TOTAL TIME 8.38080E+06 1.39680E+05  2328.0      97.000     0.26557    


end timestep


start timestep kper="98" kstp="1" mode="normal"


 OUTPUT CONTROL FOR STRESS PERIOD 98 IS REPEATED USING SETTINGS FROM A PREVIOUS STRESS PERIOD.


 STRESS PERIOD 98 IS TRANSIENT

 UBDSV1 SAVING     FLOW-JA-FACE ON UNIT   1016 AT TIME STEP      1, STRESS PERIOD     98
 UBDSV06 SAVING              RIV IN MODEL GWF_1            PACKAGE GWF_1           CONNECTED TO MODEL GWF_1            PACKAGE RIV-1            ON UNIT   1016 AT TIME STEP      1, STRESS PERIOD     98
 UBDSV06 SAVING              RCH IN MODEL GWF_1            PACKAGE GWF_1           CONNECTED TO MODEL GWF_1            PACKAGE RCH_MSW          ON UNIT   1016 AT TIME STEP      1, STRESS PERIOD     98

 HEAD WILL BE SAVED ON UNIT 1017 AT END OF TIME STEP    1, STRESS PERIOD   98


  VOLUME BUDGET FOR ENTIRE MODEL AT END OF TIME STEP    1, STRESS PERIOD  98
  ---------------------------------------------------------------------------------------------------

     CUMULATIVE VOLUME      L**3       RATES FOR THIS TIME STEP      L**3/T          PACKAGE NAME    
     ------------------                 ------------------------                     ----------------

           IN:                                      IN:
           ---                                      ---
              STO-SS =         623.4629                STO-SS =          79.9560     STORAGE                          
                 RIV =           0.0000                   RIV =           0.0000     RIV-1                            
                 RCH =       24912.8832                   RCH =          24.6368     RCH_MSW                          

            TOTAL IN =       25536.3461              TOTAL IN =         104.5928

          OUT:                                     OUT:
          ----                                     ----
              STO-SS =       25053.4630                STO-SS =          36.4178     STORAGE                          
                 RIV =           0.0000                   RIV =           0.0000     RIV-1                            
                 RCH =         482.8831                   RCH =          68.1751     RCH_MSW                          

           TOTAL OUT =       25536.3461             TOTAL OUT =         104.5928

            IN - OUT =       1.4578E-07              IN - OUT =       6.9838E-10

 PERCENT DISCREPANCY =           0.00     PERCENT DISCREPANCY =           0.00




         TIME SUMMARY AT END OF TIME STEP    1 IN STRESS PERIOD   98
                    SECONDS     MINUTES      HOURS       DAYS        YEARS
                    -----------------------------------------------------------
   TIME STEP LENGTH  86400.      1440.0      24.000      1.0000     2.73785E-03
 STRESS PERIOD TIME  86400.      1440.0      24.000      1.0000     2.73785E-03
         TOTAL TIME 8.46720E+06 1.41120E+05  2352.0      98.000     0.26831    


end timestep


start timestep kper="99" kstp="1" mode="normal"


 OUTPUT CONTROL FOR STRESS PERIOD 99 IS REPEATED USING SETTINGS FROM A PREVIOUS STRESS PERIOD.


 STRESS PERIOD 99 IS TRANSIENT

 UBDSV1 SAVING     FLOW-JA-FACE ON UNIT   1016 AT TIME STEP      1, STRESS PERIOD     99
 UBDSV06 SAVING              RIV IN MODEL GWF_1            PACKAGE GWF_1           CONNECTED TO MODEL GWF_1            PACKAGE RIV-1            ON UNIT   1016 AT TIME STEP      1, STRESS PERIOD     99
 UBDSV06 SAVING              RCH IN MODEL GWF_1            PACKAGE GWF_1           CONNECTED TO MODEL GWF_1            PACKAGE RCH_MSW          ON UNIT   1016 AT TIME STEP      1, STRESS PERIOD     99

 HEAD WILL BE SAVED ON UNIT 1017 AT END OF TIME STEP    1, STRESS PERIOD   99


  VOLUME BUDGET FOR ENTIRE MODEL AT END OF TIME STEP    1, STRESS PERIOD  99
  ---------------------------------------------------------------------------------------------------

     CUMULATIVE VOLUME      L**3       RATES FOR THIS TIME STEP      L**3/T          PACKAGE NAME    
     ------------------                 ------------------------                     ----------------

           IN:                                      IN:
           ---                                      ---
              STO-SS =         717.9462                STO-SS =          94.4833     STORAGE                          
                 RIV =           0.0000                   RIV =           0.0000     RIV-1                            
                 RCH =       24935.9395                   RCH =          23.0563     RCH_MSW                          

            TOTAL IN =       25653.8857              TOTAL IN =         117.5396

          OUT:                                     OUT:
          ----                                     ----
              STO-SS =       25088.1240                STO-SS =          34.6610     STORAGE                          
                 RIV =           0.0000                   RIV =           0.0000     RIV-1                            
                 RCH =         565.7617                   RCH =          82.8786     RCH_MSW                          

           TOTAL OUT =       25653.8857             TOTAL OUT =         117.5396

            IN - OUT =       1.4162E-07              IN - OUT =      -4.1614E-09

 PERCENT DISCREPANCY =           0.00     PERCENT DISCREPANCY =          -0.00




         TIME SUMMARY AT END OF TIME STEP    1 IN STRESS PERIOD   99
                    SECONDS     MINUTES      HOURS       DAYS        YEARS
                    -----------------------------------------------------------
   TIME STEP LENGTH  86400.      1440.0      24.000      1.0000     2.73785E-03
 STRESS PERIOD TIME  86400.      1440.0      24.000      1.0000     2.73785E-03
         TOTAL TIME 8.55360E+06 1.42560E+05  2376.0      99.000     0.27105    


end timestep


start timestep kper="100" kstp="1" mode="normal"


 OUTPUT CONTROL FOR STRESS PERIOD 100 IS REPEATED USING SETTINGS FROM A PREVIOUS STRESS PERIOD.


 STRESS PERIOD 100 IS TRANSIENT

 UBDSV1 SAVING     FLOW-JA-FACE ON UNIT   1016 AT TIME STEP      1, STRESS PERIOD    100
 UBDSV06 SAVING              RIV IN MODEL GWF_1            PACKAGE GWF_1           CONNECTED TO MODEL GWF_1            PACKAGE RIV-1            ON UNIT   1016 AT TIME STEP      1, STRESS PERIOD    100
 UBDSV06 SAVING              RCH IN MODEL GWF_1            PACKAGE GWF_1           CONNECTED TO MODEL GWF_1            PACKAGE RCH_MSW          ON UNIT   1016 AT TIME STEP      1, STRESS PERIOD    100

 HEAD WILL BE SAVED ON UNIT 1017 AT END OF TIME STEP    1, STRESS PERIOD  100


  VOLUME BUDGET FOR ENTIRE MODEL AT END OF TIME STEP    1, STRESS PERIOD 100
  ---------------------------------------------------------------------------------------------------

     CUMULATIVE VOLUME      L**3       RATES FOR THIS TIME STEP      L**3/T          PACKAGE NAME    
     ------------------                 ------------------------                     ----------------

           IN:                                      IN:
           ---                                      ---
              STO-SS =         825.9840                STO-SS =         108.0378     STORAGE                          
                 RIV =           0.0000                   RIV =           0.0000     RIV-1                            
                 RCH =       24957.3551                   RCH =          21.4156     RCH_MSW                          

            TOTAL IN =       25783.3391              TOTAL IN =         129.4534

          OUT:                                     OUT:
          ----                                     ----
              STO-SS =       25120.9569                STO-SS =          32.8329     STORAGE                          
                 RIV =           0.0000                   RIV =           0.0000     RIV-1                            
                 RCH =         662.3822                   RCH =          96.6206     RCH_MSW                          

           TOTAL OUT =       25783.3391             TOTAL OUT =         129.4534

            IN - OUT =       1.2342E-07              IN - OUT =      -1.8196E-08

 PERCENT DISCREPANCY =           0.00     PERCENT DISCREPANCY =          -0.00




         TIME SUMMARY AT END OF TIME STEP    1 IN STRESS PERIOD  100
                    SECONDS     MINUTES      HOURS       DAYS        YEARS
                    -----------------------------------------------------------
   TIME STEP LENGTH  86400.      1440.0      24.000      1.0000     2.73785E-03
 STRESS PERIOD TIME  86400.      1440.0      24.000      1.0000     2.73785E-03
         TOTAL TIME 8.64000E+06 1.44000E+05  2400.0      100.00     0.27379    


end timestep


start timestep kper="101" kstp="1" mode="normal"


 OUTPUT CONTROL FOR STRESS PERIOD 101 IS REPEATED USING SETTINGS FROM A PREVIOUS STRESS PERIOD.


 STRESS PERIOD 101 IS TRANSIENT

 UBDSV1 SAVING     FLOW-JA-FACE ON UNIT   1016 AT TIME STEP      1, STRESS PERIOD    101
 UBDSV06 SAVING              RIV IN MODEL GWF_1            PACKAGE GWF_1           CONNECTED TO MODEL GWF_1            PACKAGE RIV-1            ON UNIT   1016 AT TIME STEP      1, STRESS PERIOD    101
 UBDSV06 SAVING              RCH IN MODEL GWF_1            PACKAGE GWF_1           CONNECTED TO MODEL GWF_1            PACKAGE RCH_MSW          ON UNIT   1016 AT TIME STEP      1, STRESS PERIOD    101

 HEAD WILL BE SAVED ON UNIT 1017 AT END OF TIME STEP    1, STRESS PERIOD  101


  VOLUME BUDGET FOR ENTIRE MODEL AT END OF TIME STEP    1, STRESS PERIOD 101
  ---------------------------------------------------------------------------------------------------

     CUMULATIVE VOLUME      L**3       RATES FOR THIS TIME STEP      L**3/T          PACKAGE NAME    
     ------------------                 ------------------------                     ----------------

           IN:                                      IN:
           ---                                      ---
              STO-SS =         933.8821                STO-SS =         107.8981     STORAGE                          
                 RIV =           0.0000                   RIV =           0.0000     RIV-1                            
                 RCH =       24977.2303                   RCH =          19.8752     RCH_MSW                          

            TOTAL IN =       25911.1124              TOTAL IN =         127.7733

          OUT:                                     OUT:
          ----                                     ----
              STO-SS =       25152.0667                STO-SS =          31.1098     STORAGE                          
                 RIV =           0.0000                   RIV =           0.0000     RIV-1                            
                 RCH =         759.0457                   RCH =          96.6634     RCH_MSW                          

           TOTAL OUT =       25911.1124             TOTAL OUT =         127.7733

            IN - OUT =       1.2176E-07              IN - OUT =      -1.6591E-09

 PERCENT DISCREPANCY =           0.00     PERCENT DISCREPANCY =          -0.00




         TIME SUMMARY AT END OF TIME STEP    1 IN STRESS PERIOD  101
                    SECONDS     MINUTES      HOURS       DAYS        YEARS
                    -----------------------------------------------------------
   TIME STEP LENGTH  86400.      1440.0      24.000      1.0000     2.73785E-03
 STRESS PERIOD TIME  86400.      1440.0      24.000      1.0000     2.73785E-03
         TOTAL TIME 8.72640E+06 1.45440E+05  2424.0      101.00     0.27652    


end timestep


start timestep kper="102" kstp="1" mode="normal"


 OUTPUT CONTROL FOR STRESS PERIOD 102 IS REPEATED USING SETTINGS FROM A PREVIOUS STRESS PERIOD.


 STRESS PERIOD 102 IS TRANSIENT

 UBDSV1 SAVING     FLOW-JA-FACE ON UNIT   1016 AT TIME STEP      1, STRESS PERIOD    102
 UBDSV06 SAVING              RIV IN MODEL GWF_1            PACKAGE GWF_1           CONNECTED TO MODEL GWF_1            PACKAGE RIV-1            ON UNIT   1016 AT TIME STEP      1, STRESS PERIOD    102
 UBDSV06 SAVING              RCH IN MODEL GWF_1            PACKAGE GWF_1           CONNECTED TO MODEL GWF_1            PACKAGE RCH_MSW          ON UNIT   1016 AT TIME STEP      1, STRESS PERIOD    102

 HEAD WILL BE SAVED ON UNIT 1017 AT END OF TIME STEP    1, STRESS PERIOD  102


  VOLUME BUDGET FOR ENTIRE MODEL AT END OF TIME STEP    1, STRESS PERIOD 102
  ---------------------------------------------------------------------------------------------------

     CUMULATIVE VOLUME      L**3       RATES FOR THIS TIME STEP      L**3/T          PACKAGE NAME    
     ------------------                 ------------------------                     ----------------

           IN:                                      IN:
           ---                                      ---
              STO-SS =        1043.7879                STO-SS =         109.9058     STORAGE                          
                 RIV =           0.0000                   RIV =           0.0000     RIV-1                            
                 RCH =       24995.5634                   RCH =          18.3330     RCH_MSW                          

            TOTAL IN =       26039.3513              TOTAL IN =         128.2389

          OUT:                                     OUT:
          ----                                     ----
              STO-SS =       25181.4557                STO-SS =          29.3890     STORAGE                          
                 RIV =           0.0000                   RIV =           0.0000     RIV-1                            
                 RCH =         857.8955                   RCH =          98.8498     RCH_MSW                          

           TOTAL OUT =       26039.3513             TOTAL OUT =         128.2389

            IN - OUT =       1.2177E-07              IN - OUT =       9.6065E-12

 PERCENT DISCREPANCY =           0.00     PERCENT DISCREPANCY =           0.00




         TIME SUMMARY AT END OF TIME STEP    1 IN STRESS PERIOD  102
                    SECONDS     MINUTES      HOURS       DAYS        YEARS
                    -----------------------------------------------------------
   TIME STEP LENGTH  86400.      1440.0      24.000      1.0000     2.73785E-03
 STRESS PERIOD TIME  86400.      1440.0      24.000      1.0000     2.73785E-03
         TOTAL TIME 8.81280E+06 1.46880E+05  2448.0      102.00     0.27926    


end timestep


start timestep kper="103" kstp="1" mode="normal"


 OUTPUT CONTROL FOR STRESS PERIOD 103 IS REPEATED USING SETTINGS FROM A PREVIOUS STRESS PERIOD.


 STRESS PERIOD 103 IS TRANSIENT

 UBDSV1 SAVING     FLOW-JA-FACE ON UNIT   1016 AT TIME STEP      1, STRESS PERIOD    103
 UBDSV06 SAVING              RIV IN MODEL GWF_1            PACKAGE GWF_1           CONNECTED TO MODEL GWF_1            PACKAGE RIV-1            ON UNIT   1016 AT TIME STEP      1, STRESS PERIOD    103
 UBDSV06 SAVING              RCH IN MODEL GWF_1            PACKAGE GWF_1           CONNECTED TO MODEL GWF_1            PACKAGE RCH_MSW          ON UNIT   1016 AT TIME STEP      1, STRESS PERIOD    103

 HEAD WILL BE SAVED ON UNIT 1017 AT END OF TIME STEP    1, STRESS PERIOD  103


  VOLUME BUDGET FOR ENTIRE MODEL AT END OF TIME STEP    1, STRESS PERIOD 103
  ---------------------------------------------------------------------------------------------------

     CUMULATIVE VOLUME      L**3       RATES FOR THIS TIME STEP      L**3/T          PACKAGE NAME    
     ------------------                 ------------------------                     ----------------

           IN:                                      IN:
           ---                                      ---
              STO-SS =        1153.0291                STO-SS =         109.2412     STORAGE                          
                 RIV =           0.0000                   RIV =           0.0000     RIV-1                            
                 RCH =       25012.4237                   RCH =          16.8604     RCH_MSW                          

            TOTAL IN =       26165.4528              TOTAL IN =         126.1015

          OUT:                                     OUT:
          ----                                     ----
              STO-SS =       25209.5539                STO-SS =          28.0982     STORAGE                          
                 RIV =           0.0000                   RIV =           0.0000     RIV-1                            
                 RCH =         955.8989                   RCH =          98.0034     RCH_MSW                          

           TOTAL OUT =       26165.4528             TOTAL OUT =         126.1015

            IN - OUT =       1.1687E-07              IN - OUT =      -4.8961E-09

 PERCENT DISCREPANCY =           0.00     PERCENT DISCREPANCY =          -0.00




         TIME SUMMARY AT END OF TIME STEP    1 IN STRESS PERIOD  103
                    SECONDS     MINUTES      HOURS       DAYS        YEARS
                    -----------------------------------------------------------
   TIME STEP LENGTH  86400.      1440.0      24.000      1.0000     2.73785E-03
 STRESS PERIOD TIME  86400.      1440.0      24.000      1.0000     2.73785E-03
         TOTAL TIME 8.89920E+06 1.48320E+05  2472.0      103.00     0.28200    


end timestep


start timestep kper="104" kstp="1" mode="normal"


 OUTPUT CONTROL FOR STRESS PERIOD 104 IS REPEATED USING SETTINGS FROM A PREVIOUS STRESS PERIOD.


 STRESS PERIOD 104 IS TRANSIENT

 UBDSV1 SAVING     FLOW-JA-FACE ON UNIT   1016 AT TIME STEP      1, STRESS PERIOD    104
 UBDSV06 SAVING              RIV IN MODEL GWF_1            PACKAGE GWF_1           CONNECTED TO MODEL GWF_1            PACKAGE RIV-1            ON UNIT   1016 AT TIME STEP      1, STRESS PERIOD    104
 UBDSV06 SAVING              RCH IN MODEL GWF_1            PACKAGE GWF_1           CONNECTED TO MODEL GWF_1            PACKAGE RCH_MSW          ON UNIT   1016 AT TIME STEP      1, STRESS PERIOD    104

 HEAD WILL BE SAVED ON UNIT 1017 AT END OF TIME STEP    1, STRESS PERIOD  104


  VOLUME BUDGET FOR ENTIRE MODEL AT END OF TIME STEP    1, STRESS PERIOD 104
  ---------------------------------------------------------------------------------------------------

     CUMULATIVE VOLUME      L**3       RATES FOR THIS TIME STEP      L**3/T          PACKAGE NAME    
     ------------------                 ------------------------                     ----------------

           IN:                                      IN:
           ---                                      ---
              STO-SS =        1267.7530                STO-SS =         114.7239     STORAGE                          
                 RIV =           0.0000                   RIV =           0.0000     RIV-1                            
                 RCH =       25027.8986                   RCH =          15.4749     RCH_MSW                          

            TOTAL IN =       26295.6516              TOTAL IN =         130.1988

          OUT:                                     OUT:
          ----                                     ----
              STO-SS =       25236.6164                STO-SS =          27.0625     STORAGE                          
                 RIV =           0.0000                   RIV =           0.0000     RIV-1                            
                 RCH =        1059.0352                   RCH =         103.1363     RCH_MSW                          

           TOTAL OUT =       26295.6516             TOTAL OUT =         130.1988

            IN - OUT =       1.1959E-07              IN - OUT =       2.7156E-09

 PERCENT DISCREPANCY =           0.00     PERCENT DISCREPANCY =           0.00




         TIME SUMMARY AT END OF TIME STEP    1 IN STRESS PERIOD  104
                    SECONDS     MINUTES      HOURS       DAYS        YEARS
                    -----------------------------------------------------------
   TIME STEP LENGTH  86400.      1440.0      24.000      1.0000     2.73785E-03
 STRESS PERIOD TIME  86400.      1440.0      24.000      1.0000     2.73785E-03
         TOTAL TIME 8.98560E+06 1.49760E+05  2496.0      104.00     0.28474    


end timestep


start timestep kper="105" kstp="1" mode="normal"


 OUTPUT CONTROL FOR STRESS PERIOD 105 IS REPEATED USING SETTINGS FROM A PREVIOUS STRESS PERIOD.


 STRESS PERIOD 105 IS TRANSIENT

 UBDSV1 SAVING     FLOW-JA-FACE ON UNIT   1016 AT TIME STEP      1, STRESS PERIOD    105
 UBDSV06 SAVING              RIV IN MODEL GWF_1            PACKAGE GWF_1           CONNECTED TO MODEL GWF_1            PACKAGE RIV-1            ON UNIT   1016 AT TIME STEP      1, STRESS PERIOD    105
 UBDSV06 SAVING              RCH IN MODEL GWF_1            PACKAGE GWF_1           CONNECTED TO MODEL GWF_1            PACKAGE RCH_MSW          ON UNIT   1016 AT TIME STEP      1, STRESS PERIOD    105

 HEAD WILL BE SAVED ON UNIT 1017 AT END OF TIME STEP    1, STRESS PERIOD  105


  VOLUME BUDGET FOR ENTIRE MODEL AT END OF TIME STEP    1, STRESS PERIOD 105
  ---------------------------------------------------------------------------------------------------

     CUMULATIVE VOLUME      L**3       RATES FOR THIS TIME STEP      L**3/T          PACKAGE NAME    
     ------------------                 ------------------------                     ----------------

           IN:                                      IN:
           ---                                      ---
              STO-SS =        1388.9422                STO-SS =         121.1892     STORAGE                          
                 RIV =           0.0000                   RIV =           0.0000     RIV-1                            
                 RCH =       25042.0803                   RCH =          14.1817     RCH_MSW                          

            TOTAL IN =       26431.0225              TOTAL IN =         135.3709

          OUT:                                     OUT:
          ----                                     ----
              STO-SS =       25262.8611                STO-SS =          26.2446     STORAGE                          
                 RIV =           0.0000                   RIV =           0.0000     RIV-1                            
                 RCH =        1168.1614                   RCH =         109.1263     RCH_MSW                          

           TOTAL OUT =       26431.0225             TOTAL OUT =         135.3709

            IN - OUT =       1.2293E-07              IN - OUT =       3.3362E-09

 PERCENT DISCREPANCY =           0.00     PERCENT DISCREPANCY =           0.00




         TIME SUMMARY AT END OF TIME STEP    1 IN STRESS PERIOD  105
                    SECONDS     MINUTES      HOURS       DAYS        YEARS
                    -----------------------------------------------------------
   TIME STEP LENGTH  86400.      1440.0      24.000      1.0000     2.73785E-03
 STRESS PERIOD TIME  86400.      1440.0      24.000      1.0000     2.73785E-03
         TOTAL TIME 9.07200E+06 1.51200E+05  2520.0      105.00     0.28747    


end timestep


start timestep kper="106" kstp="1" mode="normal"


 OUTPUT CONTROL FOR STRESS PERIOD 106 IS REPEATED USING SETTINGS FROM A PREVIOUS STRESS PERIOD.


 STRESS PERIOD 106 IS TRANSIENT

 UBDSV1 SAVING     FLOW-JA-FACE ON UNIT   1016 AT TIME STEP      1, STRESS PERIOD    106
 UBDSV06 SAVING              RIV IN MODEL GWF_1            PACKAGE GWF_1           CONNECTED TO MODEL GWF_1            PACKAGE RIV-1            ON UNIT   1016 AT TIME STEP      1, STRESS PERIOD    106
 UBDSV06 SAVING              RCH IN MODEL GWF_1            PACKAGE GWF_1           CONNECTED TO MODEL GWF_1            PACKAGE RCH_MSW          ON UNIT   1016 AT TIME STEP      1, STRESS PERIOD    106

 HEAD WILL BE SAVED ON UNIT 1017 AT END OF TIME STEP    1, STRESS PERIOD  106


  VOLUME BUDGET FOR ENTIRE MODEL AT END OF TIME STEP    1, STRESS PERIOD 106
  ---------------------------------------------------------------------------------------------------

     CUMULATIVE VOLUME      L**3       RATES FOR THIS TIME STEP      L**3/T          PACKAGE NAME    
     ------------------                 ------------------------                     ----------------

           IN:                                      IN:
           ---                                      ---
              STO-SS =        1471.8555                STO-SS =          82.9133     STORAGE                          
                 RIV =           0.0000                   RIV =           0.0000     RIV-1                            
                 RCH =       25057.2448                   RCH =          15.1644     RCH_MSW                          

            TOTAL IN =       26529.1003              TOTAL IN =          98.0777

          OUT:                                     OUT:
          ----                                     ----
              STO-SS =       25289.2032                STO-SS =          26.3421     STORAGE                          
                 RIV =           0.0000                   RIV =           0.0000     RIV-1                            
                 RCH =        1239.8971                   RCH =          71.7356     RCH_MSW                          

           TOTAL OUT =       26529.1003             TOTAL OUT =          98.0777

            IN - OUT =       1.1740E-07              IN - OUT =      -5.5196E-09

 PERCENT DISCREPANCY =           0.00     PERCENT DISCREPANCY =          -0.00




         TIME SUMMARY AT END OF TIME STEP    1 IN STRESS PERIOD  106
                    SECONDS     MINUTES      HOURS       DAYS        YEARS
                    -----------------------------------------------------------
   TIME STEP LENGTH  86400.      1440.0      24.000      1.0000     2.73785E-03
 STRESS PERIOD TIME  86400.      1440.0      24.000      1.0000     2.73785E-03
         TOTAL TIME 9.15840E+06 1.52640E+05  2544.0      106.00     0.29021    


end timestep


start timestep kper="107" kstp="1" mode="normal"


 OUTPUT CONTROL FOR STRESS PERIOD 107 IS REPEATED USING SETTINGS FROM A PREVIOUS STRESS PERIOD.


 STRESS PERIOD 107 IS TRANSIENT

 UBDSV1 SAVING     FLOW-JA-FACE ON UNIT   1016 AT TIME STEP      1, STRESS PERIOD    107
 UBDSV06 SAVING              RIV IN MODEL GWF_1            PACKAGE GWF_1           CONNECTED TO MODEL GWF_1            PACKAGE RIV-1            ON UNIT   1016 AT TIME STEP      1, STRESS PERIOD    107
 UBDSV06 SAVING              RCH IN MODEL GWF_1            PACKAGE GWF_1           CONNECTED TO MODEL GWF_1            PACKAGE RCH_MSW          ON UNIT   1016 AT TIME STEP      1, STRESS PERIOD    107

 HEAD WILL BE SAVED ON UNIT 1017 AT END OF TIME STEP    1, STRESS PERIOD  107


  VOLUME BUDGET FOR ENTIRE MODEL AT END OF TIME STEP    1, STRESS PERIOD 107
  ---------------------------------------------------------------------------------------------------

     CUMULATIVE VOLUME      L**3       RATES FOR THIS TIME STEP      L**3/T          PACKAGE NAME    
     ------------------                 ------------------------                     ----------------

           IN:                                      IN:
           ---                                      ---
              STO-SS =        1545.9527                STO-SS =          74.0972     STORAGE                          
                 RIV =           0.0000                   RIV =           0.0000     RIV-1                            
                 RCH =       25071.0953                   RCH =          13.8505     RCH_MSW                          

            TOTAL IN =       26617.0479              TOTAL IN =          87.9477

          OUT:                                     OUT:
          ----                                     ----
              STO-SS =       25315.0479                STO-SS =          25.8447     STORAGE                          
                 RIV =           0.0000                   RIV =           0.0000     RIV-1                            
                 RCH =        1302.0001                   RCH =          62.1030     RCH_MSW                          

           TOTAL OUT =       26617.0479             TOTAL OUT =          87.9477

            IN - OUT =       1.1566E-07              IN - OUT =      -1.7493E-09

 PERCENT DISCREPANCY =           0.00     PERCENT DISCREPANCY =          -0.00




         TIME SUMMARY AT END OF TIME STEP    1 IN STRESS PERIOD  107
                    SECONDS     MINUTES      HOURS       DAYS        YEARS
                    -----------------------------------------------------------
   TIME STEP LENGTH  86400.      1440.0      24.000      1.0000     2.73785E-03
 STRESS PERIOD TIME  86400.      1440.0      24.000      1.0000     2.73785E-03
         TOTAL TIME 9.24480E+06 1.54080E+05  2568.0      107.00     0.29295    


end timestep


start timestep kper="108" kstp="1" mode="normal"


 OUTPUT CONTROL FOR STRESS PERIOD 108 IS REPEATED USING SETTINGS FROM A PREVIOUS STRESS PERIOD.


 STRESS PERIOD 108 IS TRANSIENT

 UBDSV1 SAVING     FLOW-JA-FACE ON UNIT   1016 AT TIME STEP      1, STRESS PERIOD    108
 UBDSV06 SAVING              RIV IN MODEL GWF_1            PACKAGE GWF_1           CONNECTED TO MODEL GWF_1            PACKAGE RIV-1            ON UNIT   1016 AT TIME STEP      1, STRESS PERIOD    108
 UBDSV06 SAVING              RCH IN MODEL GWF_1            PACKAGE GWF_1           CONNECTED TO MODEL GWF_1            PACKAGE RCH_MSW          ON UNIT   1016 AT TIME STEP      1, STRESS PERIOD    108

 HEAD WILL BE SAVED ON UNIT 1017 AT END OF TIME STEP    1, STRESS PERIOD  108


  VOLUME BUDGET FOR ENTIRE MODEL AT END OF TIME STEP    1, STRESS PERIOD 108
  ---------------------------------------------------------------------------------------------------

     CUMULATIVE VOLUME      L**3       RATES FOR THIS TIME STEP      L**3/T          PACKAGE NAME    
     ------------------                 ------------------------                     ----------------

           IN:                                      IN:
           ---                                      ---
              STO-SS =        1637.0060                STO-SS =          91.0533     STORAGE                          
                 RIV =           0.0000                   RIV =           0.0000     RIV-1                            
                 RCH =       25084.0867                   RCH =          12.9915     RCH_MSW                          

            TOTAL IN =       26721.0928              TOTAL IN =         104.0448

          OUT:                                     OUT:
          ----                                     ----
              STO-SS =       25340.3403                STO-SS =          25.2924     STORAGE                          
                 RIV =           0.0000                   RIV =           0.0000     RIV-1                            
                 RCH =        1380.7524                   RCH =          78.7524     RCH_MSW                          

           TOTAL OUT =       26721.0928             TOTAL OUT =         104.0448

            IN - OUT =       1.2146E-07              IN - OUT =       5.8060E-09

 PERCENT DISCREPANCY =           0.00     PERCENT DISCREPANCY =           0.00




         TIME SUMMARY AT END OF TIME STEP    1 IN STRESS PERIOD  108
                    SECONDS     MINUTES      HOURS       DAYS        YEARS
                    -----------------------------------------------------------
   TIME STEP LENGTH  86400.      1440.0      24.000      1.0000     2.73785E-03
 STRESS PERIOD TIME  86400.      1440.0      24.000      1.0000     2.73785E-03
         TOTAL TIME 9.33120E+06 1.55520E+05  2592.0      108.00     0.29569    


end timestep


start timestep kper="109" kstp="1" mode="normal"


 OUTPUT CONTROL FOR STRESS PERIOD 109 IS REPEATED USING SETTINGS FROM A PREVIOUS STRESS PERIOD.


 STRESS PERIOD 109 IS TRANSIENT

 UBDSV1 SAVING     FLOW-JA-FACE ON UNIT   1016 AT TIME STEP      1, STRESS PERIOD    109
 UBDSV06 SAVING              RIV IN MODEL GWF_1            PACKAGE GWF_1           CONNECTED TO MODEL GWF_1            PACKAGE RIV-1            ON UNIT   1016 AT TIME STEP      1, STRESS PERIOD    109
 UBDSV06 SAVING              RCH IN MODEL GWF_1            PACKAGE GWF_1           CONNECTED TO MODEL GWF_1            PACKAGE RCH_MSW          ON UNIT   1016 AT TIME STEP      1, STRESS PERIOD    109

 HEAD WILL BE SAVED ON UNIT 1017 AT END OF TIME STEP    1, STRESS PERIOD  109


  VOLUME BUDGET FOR ENTIRE MODEL AT END OF TIME STEP    1, STRESS PERIOD 109
  ---------------------------------------------------------------------------------------------------

     CUMULATIVE VOLUME      L**3       RATES FOR THIS TIME STEP      L**3/T          PACKAGE NAME    
     ------------------                 ------------------------                     ----------------

           IN:                                      IN:
           ---                                      ---
              STO-SS =        1736.8535                STO-SS =          99.8475     STORAGE                          
                 RIV =           0.0000                   RIV =           0.0000     RIV-1                            
                 RCH =       25095.4711                   RCH =          11.3844     RCH_MSW                          

            TOTAL IN =       26832.3246              TOTAL IN =         111.2318

          OUT:                                     OUT:
          ----                                     ----
              STO-SS =       25364.7526                STO-SS =          24.4123     STORAGE                          
                 RIV =           0.0000                   RIV =           0.0000     RIV-1                            
                 RCH =        1467.5720                   RCH =          86.8195     RCH_MSW                          

           TOTAL OUT =       26832.3246             TOTAL OUT =         111.2318

            IN - OUT =       1.2508E-07              IN - OUT =       3.6190E-09

 PERCENT DISCREPANCY =           0.00     PERCENT DISCREPANCY =           0.00




         TIME SUMMARY AT END OF TIME STEP    1 IN STRESS PERIOD  109
                    SECONDS     MINUTES      HOURS       DAYS        YEARS
                    -----------------------------------------------------------
   TIME STEP LENGTH  86400.      1440.0      24.000      1.0000     2.73785E-03
 STRESS PERIOD TIME  86400.      1440.0      24.000      1.0000     2.73785E-03
         TOTAL TIME 9.41760E+06 1.56960E+05  2616.0      109.00     0.29843    


end timestep


start timestep kper="110" kstp="1" mode="normal"


 OUTPUT CONTROL FOR STRESS PERIOD 110 IS REPEATED USING SETTINGS FROM A PREVIOUS STRESS PERIOD.


 STRESS PERIOD 110 IS TRANSIENT

 UBDSV1 SAVING     FLOW-JA-FACE ON UNIT   1016 AT TIME STEP      1, STRESS PERIOD    110
 UBDSV06 SAVING              RIV IN MODEL GWF_1            PACKAGE GWF_1           CONNECTED TO MODEL GWF_1            PACKAGE RIV-1            ON UNIT   1016 AT TIME STEP      1, STRESS PERIOD    110
 UBDSV06 SAVING              RCH IN MODEL GWF_1            PACKAGE GWF_1           CONNECTED TO MODEL GWF_1            PACKAGE RCH_MSW          ON UNIT   1016 AT TIME STEP      1, STRESS PERIOD    110

 HEAD WILL BE SAVED ON UNIT 1017 AT END OF TIME STEP    1, STRESS PERIOD  110


  VOLUME BUDGET FOR ENTIRE MODEL AT END OF TIME STEP    1, STRESS PERIOD 110
  ---------------------------------------------------------------------------------------------------

     CUMULATIVE VOLUME      L**3       RATES FOR THIS TIME STEP      L**3/T          PACKAGE NAME    
     ------------------                 ------------------------                     ----------------

           IN:                                      IN:
           ---                                      ---
              STO-SS =        1839.0864                STO-SS =         102.2329     STORAGE                          
                 RIV =           0.0000                   RIV =           0.0000     RIV-1                            
                 RCH =       25105.2759                   RCH =           9.8048     RCH_MSW                          

            TOTAL IN =       26944.3623              TOTAL IN =         112.0377

          OUT:                                     OUT:
          ----                                     ----
              STO-SS =       25387.4587                STO-SS =          22.7061     STORAGE                          
                 RIV =           0.0000                   RIV =           0.0000     RIV-1                            
                 RCH =        1556.9036                   RCH =          89.3316     RCH_MSW                          

           TOTAL OUT =       26944.3623             TOTAL OUT =         112.0377

            IN - OUT =       1.3044E-07              IN - OUT =       5.3567E-09

 PERCENT DISCREPANCY =           0.00     PERCENT DISCREPANCY =           0.00




         TIME SUMMARY AT END OF TIME STEP    1 IN STRESS PERIOD  110
                    SECONDS     MINUTES      HOURS       DAYS        YEARS
                    -----------------------------------------------------------
   TIME STEP LENGTH  86400.      1440.0      24.000      1.0000     2.73785E-03
 STRESS PERIOD TIME  86400.      1440.0      24.000      1.0000     2.73785E-03
         TOTAL TIME 9.50400E+06 1.58400E+05  2640.0      110.00     0.30116    


end timestep


start timestep kper="111" kstp="1" mode="normal"


 OUTPUT CONTROL FOR STRESS PERIOD 111 IS REPEATED USING SETTINGS FROM A PREVIOUS STRESS PERIOD.


 STRESS PERIOD 111 IS TRANSIENT

 UBDSV1 SAVING     FLOW-JA-FACE ON UNIT   1016 AT TIME STEP      1, STRESS PERIOD    111
 UBDSV06 SAVING              RIV IN MODEL GWF_1            PACKAGE GWF_1           CONNECTED TO MODEL GWF_1            PACKAGE RIV-1            ON UNIT   1016 AT TIME STEP      1, STRESS PERIOD    111
 UBDSV06 SAVING              RCH IN MODEL GWF_1            PACKAGE GWF_1           CONNECTED TO MODEL GWF_1            PACKAGE RCH_MSW          ON UNIT   1016 AT TIME STEP      1, STRESS PERIOD    111

 HEAD WILL BE SAVED ON UNIT 1017 AT END OF TIME STEP    1, STRESS PERIOD  111


  VOLUME BUDGET FOR ENTIRE MODEL AT END OF TIME STEP    1, STRESS PERIOD 111
  ---------------------------------------------------------------------------------------------------

     CUMULATIVE VOLUME      L**3       RATES FOR THIS TIME STEP      L**3/T          PACKAGE NAME    
     ------------------                 ------------------------                     ----------------

           IN:                                      IN:
           ---                                      ---
              STO-SS =        1951.8692                STO-SS =         112.7828     STORAGE                          
                 RIV =           0.0000                   RIV =           0.0000     RIV-1                            
                 RCH =       25114.5820                   RCH =           9.3061     RCH_MSW                          

            TOTAL IN =       27066.4511              TOTAL IN =         122.0889

          OUT:                                     OUT:
          ----                                     ----
              STO-SS =       25409.5410                STO-SS =          22.0823     STORAGE                          
                 RIV =           0.0000                   RIV =           0.0000     RIV-1                            
                 RCH =        1656.9101                   RCH =         100.0066     RCH_MSW                          

           TOTAL OUT =       27066.4511             TOTAL OUT =         122.0889

            IN - OUT =       1.2368E-07              IN - OUT =      -6.7661E-09

 PERCENT DISCREPANCY =           0.00     PERCENT DISCREPANCY =          -0.00




         TIME SUMMARY AT END OF TIME STEP    1 IN STRESS PERIOD  111
                    SECONDS     MINUTES      HOURS       DAYS        YEARS
                    -----------------------------------------------------------
   TIME STEP LENGTH  86400.      1440.0      24.000      1.0000     2.73785E-03
 STRESS PERIOD TIME  86400.      1440.0      24.000      1.0000     2.73785E-03
         TOTAL TIME 9.59040E+06 1.59840E+05  2664.0      111.00     0.30390    


end timestep


start timestep kper="112" kstp="1" mode="normal"


 OUTPUT CONTROL FOR STRESS PERIOD 112 IS REPEATED USING SETTINGS FROM A PREVIOUS STRESS PERIOD.


 STRESS PERIOD 112 IS TRANSIENT

 UBDSV1 SAVING     FLOW-JA-FACE ON UNIT   1016 AT TIME STEP      1, STRESS PERIOD    112
 UBDSV06 SAVING              RIV IN MODEL GWF_1            PACKAGE GWF_1           CONNECTED TO MODEL GWF_1            PACKAGE RIV-1            ON UNIT   1016 AT TIME STEP      1, STRESS PERIOD    112
 UBDSV06 SAVING              RCH IN MODEL GWF_1            PACKAGE GWF_1           CONNECTED TO MODEL GWF_1            PACKAGE RCH_MSW          ON UNIT   1016 AT TIME STEP      1, STRESS PERIOD    112

 HEAD WILL BE SAVED ON UNIT 1017 AT END OF TIME STEP    1, STRESS PERIOD  112


  VOLUME BUDGET FOR ENTIRE MODEL AT END OF TIME STEP    1, STRESS PERIOD 112
  ---------------------------------------------------------------------------------------------------

     CUMULATIVE VOLUME      L**3       RATES FOR THIS TIME STEP      L**3/T          PACKAGE NAME    
     ------------------                 ------------------------                     ----------------

           IN:                                      IN:
           ---                                      ---
              STO-SS =        2069.0238                STO-SS =         117.1547     STORAGE                          
                 RIV =           0.0000                   RIV =           0.0000     RIV-1                            
                 RCH =       25123.3954                   RCH =           8.8134     RCH_MSW                          

            TOTAL IN =       27192.4192              TOTAL IN =         125.9681

          OUT:                                     OUT:
          ----                                     ----
              STO-SS =       25431.0155                STO-SS =          21.4745     STORAGE                          
                 RIV =           0.0000                   RIV =           0.0000     RIV-1                            
                 RCH =        1761.4037                   RCH =         104.4936     RCH_MSW                          

           TOTAL OUT =       27192.4192             TOTAL OUT =         125.9681

            IN - OUT =       1.2362E-07              IN - OUT =      -5.1827E-11

 PERCENT DISCREPANCY =           0.00     PERCENT DISCREPANCY =          -0.00




         TIME SUMMARY AT END OF TIME STEP    1 IN STRESS PERIOD  112
                    SECONDS     MINUTES      HOURS       DAYS        YEARS
                    -----------------------------------------------------------
   TIME STEP LENGTH  86400.      1440.0      24.000      1.0000     2.73785E-03
 STRESS PERIOD TIME  86400.      1440.0      24.000      1.0000     2.73785E-03
         TOTAL TIME 9.67680E+06 1.61280E+05  2688.0      112.00     0.30664    


end timestep


start timestep kper="113" kstp="1" mode="normal"


 OUTPUT CONTROL FOR STRESS PERIOD 113 IS REPEATED USING SETTINGS FROM A PREVIOUS STRESS PERIOD.


 STRESS PERIOD 113 IS TRANSIENT

 UBDSV1 SAVING     FLOW-JA-FACE ON UNIT   1016 AT TIME STEP      1, STRESS PERIOD    113
 UBDSV06 SAVING              RIV IN MODEL GWF_1            PACKAGE GWF_1           CONNECTED TO MODEL GWF_1            PACKAGE RIV-1            ON UNIT   1016 AT TIME STEP      1, STRESS PERIOD    113
 UBDSV06 SAVING              RCH IN MODEL GWF_1            PACKAGE GWF_1           CONNECTED TO MODEL GWF_1            PACKAGE RCH_MSW          ON UNIT   1016 AT TIME STEP      1, STRESS PERIOD    113

 HEAD WILL BE SAVED ON UNIT 1017 AT END OF TIME STEP    1, STRESS PERIOD  113


  VOLUME BUDGET FOR ENTIRE MODEL AT END OF TIME STEP    1, STRESS PERIOD 113
  ---------------------------------------------------------------------------------------------------

     CUMULATIVE VOLUME      L**3       RATES FOR THIS TIME STEP      L**3/T          PACKAGE NAME    
     ------------------                 ------------------------                     ----------------

           IN:                                      IN:
           ---                                      ---
              STO-SS =        2178.1475                STO-SS =         109.1236     STORAGE                          
                 RIV =           0.0000                   RIV =           0.0000     RIV-1                            
                 RCH =       25133.3334                   RCH =           9.9380     RCH_MSW                          

            TOTAL IN =       27311.4808              TOTAL IN =         119.0616

          OUT:                                     OUT:
          ----                                     ----
              STO-SS =       25453.5002                STO-SS =          22.4847     STORAGE                          
                 RIV =           0.0000                   RIV =           0.0000     RIV-1                            
                 RCH =        1857.9806                   RCH =          96.5769     RCH_MSW                          

           TOTAL OUT =       27311.4808             TOTAL OUT =         119.0616

            IN - OUT =       1.2517E-07              IN - OUT =       1.5499E-09

 PERCENT DISCREPANCY =           0.00     PERCENT DISCREPANCY =           0.00




         TIME SUMMARY AT END OF TIME STEP    1 IN STRESS PERIOD  113
                    SECONDS     MINUTES      HOURS       DAYS        YEARS
                    -----------------------------------------------------------
   TIME STEP LENGTH  86400.      1440.0      24.000      1.0000     2.73785E-03
 STRESS PERIOD TIME  86400.      1440.0      24.000      1.0000     2.73785E-03
         TOTAL TIME 9.76320E+06 1.62720E+05  2712.0      113.00     0.30938    


end timestep


start timestep kper="114" kstp="1" mode="normal"


 OUTPUT CONTROL FOR STRESS PERIOD 114 IS REPEATED USING SETTINGS FROM A PREVIOUS STRESS PERIOD.


 STRESS PERIOD 114 IS TRANSIENT

 UBDSV1 SAVING     FLOW-JA-FACE ON UNIT   1016 AT TIME STEP      1, STRESS PERIOD    114
 UBDSV06 SAVING              RIV IN MODEL GWF_1            PACKAGE GWF_1           CONNECTED TO MODEL GWF_1            PACKAGE RIV-1            ON UNIT   1016 AT TIME STEP      1, STRESS PERIOD    114
 UBDSV06 SAVING              RCH IN MODEL GWF_1            PACKAGE GWF_1           CONNECTED TO MODEL GWF_1            PACKAGE RCH_MSW          ON UNIT   1016 AT TIME STEP      1, STRESS PERIOD    114

 HEAD WILL BE SAVED ON UNIT 1017 AT END OF TIME STEP    1, STRESS PERIOD  114


  VOLUME BUDGET FOR ENTIRE MODEL AT END OF TIME STEP    1, STRESS PERIOD 114
  ---------------------------------------------------------------------------------------------------

     CUMULATIVE VOLUME      L**3       RATES FOR THIS TIME STEP      L**3/T          PACKAGE NAME    
     ------------------                 ------------------------                     ----------------

           IN:                                      IN:
           ---                                      ---
              STO-SS =        2247.7110                STO-SS =          69.5636     STORAGE                          
                 RIV =           0.0000                   RIV =           0.0000     RIV-1                            
                 RCH =       25156.5513                   RCH =          23.2179     RCH_MSW                          

            TOTAL IN =       27404.2623              TOTAL IN =          92.7815

          OUT:                                     OUT:
          ----                                     ----
              STO-SS =       25487.6563                STO-SS =          34.1562     STORAGE                          
                 RIV =           0.0000                   RIV =           0.0000     RIV-1                            
                 RCH =        1916.6059                   RCH =          58.6253     RCH_MSW                          

           TOTAL OUT =       27404.2623             TOTAL OUT =          92.7815

            IN - OUT =       1.1169E-07              IN - OUT =      -1.3484E-08

 PERCENT DISCREPANCY =           0.00     PERCENT DISCREPANCY =          -0.00




         TIME SUMMARY AT END OF TIME STEP    1 IN STRESS PERIOD  114
                    SECONDS     MINUTES      HOURS       DAYS        YEARS
                    -----------------------------------------------------------
   TIME STEP LENGTH  86400.      1440.0      24.000      1.0000     2.73785E-03
 STRESS PERIOD TIME  86400.      1440.0      24.000      1.0000     2.73785E-03
         TOTAL TIME 9.84960E+06 1.64160E+05  2736.0      114.00     0.31211    


end timestep


start timestep kper="115" kstp="1" mode="normal"


 OUTPUT CONTROL FOR STRESS PERIOD 115 IS REPEATED USING SETTINGS FROM A PREVIOUS STRESS PERIOD.


 STRESS PERIOD 115 IS TRANSIENT

 UBDSV1 SAVING     FLOW-JA-FACE ON UNIT   1016 AT TIME STEP      1, STRESS PERIOD    115
 UBDSV06 SAVING              RIV IN MODEL GWF_1            PACKAGE GWF_1           CONNECTED TO MODEL GWF_1            PACKAGE RIV-1            ON UNIT   1016 AT TIME STEP      1, STRESS PERIOD    115
 UBDSV06 SAVING              RCH IN MODEL GWF_1            PACKAGE GWF_1           CONNECTED TO MODEL GWF_1            PACKAGE RCH_MSW          ON UNIT   1016 AT TIME STEP      1, STRESS PERIOD    115

 HEAD WILL BE SAVED ON UNIT 1017 AT END OF TIME STEP    1, STRESS PERIOD  115


  VOLUME BUDGET FOR ENTIRE MODEL AT END OF TIME STEP    1, STRESS PERIOD 115
  ---------------------------------------------------------------------------------------------------

     CUMULATIVE VOLUME      L**3       RATES FOR THIS TIME STEP      L**3/T          PACKAGE NAME    
     ------------------                 ------------------------                     ----------------

           IN:                                      IN:
           ---                                      ---
              STO-SS =        2314.9664                STO-SS =          67.2554     STORAGE                          
                 RIV =           0.0000                   RIV =           0.0000     RIV-1                            
                 RCH =       25169.3681                   RCH =          12.8168     RCH_MSW                          

            TOTAL IN =       27484.3345              TOTAL IN =          80.0722

          OUT:                                     OUT:
          ----                                     ----
              STO-SS =       25511.2957                STO-SS =          23.6393     STORAGE                          
                 RIV =           0.0000                   RIV =           0.0000     RIV-1                            
                 RCH =        1973.0388                   RCH =          56.4329     RCH_MSW                          

           TOTAL OUT =       27484.3345             TOTAL OUT =          80.0722

            IN - OUT =       1.0735E-07              IN - OUT =      -4.3327E-09

 PERCENT DISCREPANCY =           0.00     PERCENT DISCREPANCY =          -0.00




         TIME SUMMARY AT END OF TIME STEP    1 IN STRESS PERIOD  115
                    SECONDS     MINUTES      HOURS       DAYS        YEARS
                    -----------------------------------------------------------
   TIME STEP LENGTH  86400.      1440.0      24.000      1.0000     2.73785E-03
 STRESS PERIOD TIME  86400.      1440.0      24.000      1.0000     2.73785E-03
         TOTAL TIME 9.93600E+06 1.65600E+05  2760.0      115.00     0.31485    


end timestep


start timestep kper="116" kstp="1" mode="normal"


 OUTPUT CONTROL FOR STRESS PERIOD 116 IS REPEATED USING SETTINGS FROM A PREVIOUS STRESS PERIOD.


 STRESS PERIOD 116 IS TRANSIENT

 UBDSV1 SAVING     FLOW-JA-FACE ON UNIT   1016 AT TIME STEP      1, STRESS PERIOD    116
 UBDSV06 SAVING              RIV IN MODEL GWF_1            PACKAGE GWF_1           CONNECTED TO MODEL GWF_1            PACKAGE RIV-1            ON UNIT   1016 AT TIME STEP      1, STRESS PERIOD    116
 UBDSV06 SAVING              RCH IN MODEL GWF_1            PACKAGE GWF_1           CONNECTED TO MODEL GWF_1            PACKAGE RCH_MSW          ON UNIT   1016 AT TIME STEP      1, STRESS PERIOD    116

 HEAD WILL BE SAVED ON UNIT 1017 AT END OF TIME STEP    1, STRESS PERIOD  116


  VOLUME BUDGET FOR ENTIRE MODEL AT END OF TIME STEP    1, STRESS PERIOD 116
  ---------------------------------------------------------------------------------------------------

     CUMULATIVE VOLUME      L**3       RATES FOR THIS TIME STEP      L**3/T          PACKAGE NAME    
     ------------------                 ------------------------                     ----------------

           IN:                                      IN:
           ---                                      ---
              STO-SS =        2383.4500                STO-SS =          68.4836     STORAGE                          
                 RIV =           0.0000                   RIV =           0.0000     RIV-1                            
                 RCH =       25178.6051                   RCH =           9.2370     RCH_MSW                          

            TOTAL IN =       27562.0550              TOTAL IN =          77.7206

          OUT:                                     OUT:
          ----                                     ----
              STO-SS =       25532.7636                STO-SS =          21.4679     STORAGE                          
                 RIV =           0.0000                   RIV =           0.0000     RIV-1                            
                 RCH =        2029.2915                   RCH =          56.2527     RCH_MSW                          

           TOTAL OUT =       27562.0550             TOTAL OUT =          77.7206

            IN - OUT =       1.0561E-07              IN - OUT =      -1.7396E-09

 PERCENT DISCREPANCY =           0.00     PERCENT DISCREPANCY =          -0.00




         TIME SUMMARY AT END OF TIME STEP    1 IN STRESS PERIOD  116
                    SECONDS     MINUTES      HOURS       DAYS        YEARS
                    -----------------------------------------------------------
   TIME STEP LENGTH  86400.      1440.0      24.000      1.0000     2.73785E-03
 STRESS PERIOD TIME  86400.      1440.0      24.000      1.0000     2.73785E-03
         TOTAL TIME 1.00224E+07 1.67040E+05  2784.0      116.00     0.31759    


end timestep


start timestep kper="117" kstp="1" mode="normal"


 OUTPUT CONTROL FOR STRESS PERIOD 117 IS REPEATED USING SETTINGS FROM A PREVIOUS STRESS PERIOD.


 STRESS PERIOD 117 IS TRANSIENT

 UBDSV1 SAVING     FLOW-JA-FACE ON UNIT   1016 AT TIME STEP      1, STRESS PERIOD    117
 UBDSV06 SAVING              RIV IN MODEL GWF_1            PACKAGE GWF_1           CONNECTED TO MODEL GWF_1            PACKAGE RIV-1            ON UNIT   1016 AT TIME STEP      1, STRESS PERIOD    117
 UBDSV06 SAVING              RCH IN MODEL GWF_1            PACKAGE GWF_1           CONNECTED TO MODEL GWF_1            PACKAGE RCH_MSW          ON UNIT   1016 AT TIME STEP      1, STRESS PERIOD    117

 HEAD WILL BE SAVED ON UNIT 1017 AT END OF TIME STEP    1, STRESS PERIOD  117


  VOLUME BUDGET FOR ENTIRE MODEL AT END OF TIME STEP    1, STRESS PERIOD 117
  ---------------------------------------------------------------------------------------------------

     CUMULATIVE VOLUME      L**3       RATES FOR THIS TIME STEP      L**3/T          PACKAGE NAME    
     ------------------                 ------------------------                     ----------------

           IN:                                      IN:
           ---                                      ---
              STO-SS =        2460.2546                STO-SS =          76.8047     STORAGE                          
                 RIV =           0.0000                   RIV =           0.0000     RIV-1                            
                 RCH =       25187.4319                   RCH =           8.8269     RCH_MSW                          

            TOTAL IN =       27647.6866              TOTAL IN =          85.6315

          OUT:                                     OUT:
          ----                                     ----
              STO-SS =       25553.7210                STO-SS =          20.9575     STORAGE                          
                 RIV =           0.0000                   RIV =           0.0000     RIV-1                            
                 RCH =        2093.9655                   RCH =          64.6741     RCH_MSW                          

           TOTAL OUT =       27647.6866             TOTAL OUT =          85.6315

            IN - OUT =       1.0383E-07              IN - OUT =      -1.7840E-09

 PERCENT DISCREPANCY =           0.00     PERCENT DISCREPANCY =          -0.00




         TIME SUMMARY AT END OF TIME STEP    1 IN STRESS PERIOD  117
                    SECONDS     MINUTES      HOURS       DAYS        YEARS
                    -----------------------------------------------------------
   TIME STEP LENGTH  86400.      1440.0      24.000      1.0000     2.73785E-03
 STRESS PERIOD TIME  86400.      1440.0      24.000      1.0000     2.73785E-03
         TOTAL TIME 1.01088E+07 1.68480E+05  2808.0      117.00     0.32033    


end timestep


start timestep kper="118" kstp="1" mode="normal"


 OUTPUT CONTROL FOR STRESS PERIOD 118 IS REPEATED USING SETTINGS FROM A PREVIOUS STRESS PERIOD.


 STRESS PERIOD 118 IS TRANSIENT

 UBDSV1 SAVING     FLOW-JA-FACE ON UNIT   1016 AT TIME STEP      1, STRESS PERIOD    118
 UBDSV06 SAVING              RIV IN MODEL GWF_1            PACKAGE GWF_1           CONNECTED TO MODEL GWF_1            PACKAGE RIV-1            ON UNIT   1016 AT TIME STEP      1, STRESS PERIOD    118
 UBDSV06 SAVING              RCH IN MODEL GWF_1            PACKAGE GWF_1           CONNECTED TO MODEL GWF_1            PACKAGE RCH_MSW          ON UNIT   1016 AT TIME STEP      1, STRESS PERIOD    118

 HEAD WILL BE SAVED ON UNIT 1017 AT END OF TIME STEP    1, STRESS PERIOD  118


  VOLUME BUDGET FOR ENTIRE MODEL AT END OF TIME STEP    1, STRESS PERIOD 118
  ---------------------------------------------------------------------------------------------------

     CUMULATIVE VOLUME      L**3       RATES FOR THIS TIME STEP      L**3/T          PACKAGE NAME    
     ------------------                 ------------------------                     ----------------

           IN:                                      IN:
           ---                                      ---
              STO-SS =        2549.5939                STO-SS =          89.3393     STORAGE                          
                 RIV =           0.0000                   RIV =           0.0000     RIV-1                            
                 RCH =       25195.7934                   RCH =           8.3614     RCH_MSW                          

            TOTAL IN =       27745.3872              TOTAL IN =          97.7007

          OUT:                                     OUT:
          ----                                     ----
              STO-SS =       25574.1171                STO-SS =          20.3961     STORAGE                          
                 RIV =           0.0000                   RIV =           0.0000     RIV-1                            
                 RCH =        2171.2702                   RCH =          77.3046     RCH_MSW                          

           TOTAL OUT =       27745.3872             TOTAL OUT =          97.7007

            IN - OUT =       9.2557E-08              IN - OUT =      -1.1271E-08

 PERCENT DISCREPANCY =           0.00     PERCENT DISCREPANCY =          -0.00




         TIME SUMMARY AT END OF TIME STEP    1 IN STRESS PERIOD  118
                    SECONDS     MINUTES      HOURS       DAYS        YEARS
                    -----------------------------------------------------------
   TIME STEP LENGTH  86400.      1440.0      24.000      1.0000     2.73785E-03
 STRESS PERIOD TIME  86400.      1440.0      24.000      1.0000     2.73785E-03
         TOTAL TIME 1.01952E+07 1.69920E+05  2832.0      118.00     0.32307    


end timestep


start timestep kper="119" kstp="1" mode="normal"


 OUTPUT CONTROL FOR STRESS PERIOD 119 IS REPEATED USING SETTINGS FROM A PREVIOUS STRESS PERIOD.


 STRESS PERIOD 119 IS TRANSIENT

 UBDSV1 SAVING     FLOW-JA-FACE ON UNIT   1016 AT TIME STEP      1, STRESS PERIOD    119
 UBDSV06 SAVING              RIV IN MODEL GWF_1            PACKAGE GWF_1           CONNECTED TO MODEL GWF_1            PACKAGE RIV-1            ON UNIT   1016 AT TIME STEP      1, STRESS PERIOD    119
 UBDSV06 SAVING              RCH IN MODEL GWF_1            PACKAGE GWF_1           CONNECTED TO MODEL GWF_1            PACKAGE RCH_MSW          ON UNIT   1016 AT TIME STEP      1, STRESS PERIOD    119

 HEAD WILL BE SAVED ON UNIT 1017 AT END OF TIME STEP    1, STRESS PERIOD  119


  VOLUME BUDGET FOR ENTIRE MODEL AT END OF TIME STEP    1, STRESS PERIOD 119
  ---------------------------------------------------------------------------------------------------

     CUMULATIVE VOLUME      L**3       RATES FOR THIS TIME STEP      L**3/T          PACKAGE NAME    
     ------------------                 ------------------------                     ----------------

           IN:                                      IN:
           ---                                      ---
              STO-SS =        2649.7609                STO-SS =         100.1670     STORAGE                          
                 RIV =           0.0000                   RIV =           0.0000     RIV-1                            
                 RCH =       25201.9023                   RCH =           6.1089     RCH_MSW                          

            TOTAL IN =       27851.6632              TOTAL IN =         106.2760

          OUT:                                     OUT:
          ----                                     ----
              STO-SS =       25592.1911                STO-SS =          18.0740     STORAGE                          
                 RIV =           0.0000                   RIV =           0.0000     RIV-1                            
                 RCH =        2259.4721                   RCH =          88.2019     RCH_MSW                          

           TOTAL OUT =       27851.6632             TOTAL OUT =         106.2760

            IN - OUT =       1.0621E-07              IN - OUT =       1.3658E-08

 PERCENT DISCREPANCY =           0.00     PERCENT DISCREPANCY =           0.00




         TIME SUMMARY AT END OF TIME STEP    1 IN STRESS PERIOD  119
                    SECONDS     MINUTES      HOURS       DAYS        YEARS
                    -----------------------------------------------------------
   TIME STEP LENGTH  86400.      1440.0      24.000      1.0000     2.73785E-03
 STRESS PERIOD TIME  86400.      1440.0      24.000      1.0000     2.73785E-03
         TOTAL TIME 1.02816E+07 1.71360E+05  2856.0      119.00     0.32580    


end timestep


start timestep kper="120" kstp="1" mode="normal"


 OUTPUT CONTROL FOR STRESS PERIOD 120 IS REPEATED USING SETTINGS FROM A PREVIOUS STRESS PERIOD.


 STRESS PERIOD 120 IS TRANSIENT

 UBDSV1 SAVING     FLOW-JA-FACE ON UNIT   1016 AT TIME STEP      1, STRESS PERIOD    120
 UBDSV06 SAVING              RIV IN MODEL GWF_1            PACKAGE GWF_1           CONNECTED TO MODEL GWF_1            PACKAGE RIV-1            ON UNIT   1016 AT TIME STEP      1, STRESS PERIOD    120
 UBDSV06 SAVING              RCH IN MODEL GWF_1            PACKAGE GWF_1           CONNECTED TO MODEL GWF_1            PACKAGE RCH_MSW          ON UNIT   1016 AT TIME STEP      1, STRESS PERIOD    120

 HEAD WILL BE SAVED ON UNIT 1017 AT END OF TIME STEP    1, STRESS PERIOD  120


  VOLUME BUDGET FOR ENTIRE MODEL AT END OF TIME STEP    1, STRESS PERIOD 120
  ---------------------------------------------------------------------------------------------------

     CUMULATIVE VOLUME      L**3       RATES FOR THIS TIME STEP      L**3/T          PACKAGE NAME    
     ------------------                 ------------------------                     ----------------

           IN:                                      IN:
           ---                                      ---
              STO-SS =        2760.0314                STO-SS =         110.2705     STORAGE                          
                 RIV =           0.0000                   RIV =           0.0000     RIV-1                            
                 RCH =       25207.7706                   RCH =           5.8683     RCH_MSW                          

            TOTAL IN =       27967.8021              TOTAL IN =         116.1388

          OUT:                                     OUT:
          ----                                     ----
              STO-SS =       25610.0276                STO-SS =          17.8365     STORAGE                          
                 RIV =           0.0000                   RIV =           0.0000     RIV-1                            
                 RCH =        2357.7745                   RCH =          98.3024     RCH_MSW                          

           TOTAL OUT =       27967.8021             TOTAL OUT =         116.1388

            IN - OUT =       1.4263E-07              IN - OUT =       3.6416E-08

 PERCENT DISCREPANCY =           0.00     PERCENT DISCREPANCY =           0.00




         TIME SUMMARY AT END OF TIME STEP    1 IN STRESS PERIOD  120
                    SECONDS     MINUTES      HOURS       DAYS        YEARS
                    -----------------------------------------------------------
   TIME STEP LENGTH  86400.      1440.0      24.000      1.0000     2.73785E-03
 STRESS PERIOD TIME  86400.      1440.0      24.000      1.0000     2.73785E-03
         TOTAL TIME 1.03680E+07 1.72800E+05  2880.0      120.00     0.32854    


end timestep


start timestep kper="121" kstp="1" mode="normal"


 OUTPUT CONTROL FOR STRESS PERIOD 121 IS REPEATED USING SETTINGS FROM A PREVIOUS STRESS PERIOD.


 STRESS PERIOD 121 IS TRANSIENT

 UBDSV1 SAVING     FLOW-JA-FACE ON UNIT   1016 AT TIME STEP      1, STRESS PERIOD    121
 UBDSV06 SAVING              RIV IN MODEL GWF_1            PACKAGE GWF_1           CONNECTED TO MODEL GWF_1            PACKAGE RIV-1            ON UNIT   1016 AT TIME STEP      1, STRESS PERIOD    121
 UBDSV06 SAVING              RCH IN MODEL GWF_1            PACKAGE GWF_1           CONNECTED TO MODEL GWF_1            PACKAGE RCH_MSW          ON UNIT   1016 AT TIME STEP      1, STRESS PERIOD    121

 HEAD WILL BE SAVED ON UNIT 1017 AT END OF TIME STEP    1, STRESS PERIOD  121


  VOLUME BUDGET FOR ENTIRE MODEL AT END OF TIME STEP    1, STRESS PERIOD 121
  ---------------------------------------------------------------------------------------------------

     CUMULATIVE VOLUME      L**3       RATES FOR THIS TIME STEP      L**3/T          PACKAGE NAME    
     ------------------                 ------------------------                     ----------------

           IN:                                      IN:
           ---                                      ---
              STO-SS =        2879.3059                STO-SS =         119.2745     STORAGE                          
                 RIV =           0.0000                   RIV =           0.0000     RIV-1                            
                 RCH =       25213.3971                   RCH =           5.6265     RCH_MSW                          

            TOTAL IN =       28092.7030              TOTAL IN =         124.9010

          OUT:                                     OUT:
          ----                                     ----
              STO-SS =       25627.6772                STO-SS =          17.6496     STORAGE                          
                 RIV =           0.0000                   RIV =           0.0000     RIV-1                            
                 RCH =        2465.0259                   RCH =         107.2514     RCH_MSW                          

           TOTAL OUT =       28092.7030             TOTAL OUT =         124.9010

            IN - OUT =       1.4432E-07              IN - OUT =       1.6940E-09

 PERCENT DISCREPANCY =           0.00     PERCENT DISCREPANCY =           0.00




         TIME SUMMARY AT END OF TIME STEP    1 IN STRESS PERIOD  121
                    SECONDS     MINUTES      HOURS       DAYS        YEARS
                    -----------------------------------------------------------
   TIME STEP LENGTH  86400.      1440.0      24.000      1.0000     2.73785E-03
 STRESS PERIOD TIME  86400.      1440.0      24.000      1.0000     2.73785E-03
         TOTAL TIME 1.04544E+07 1.74240E+05  2904.0      121.00     0.33128    


end timestep


start timestep kper="122" kstp="1" mode="normal"


 OUTPUT CONTROL FOR STRESS PERIOD 122 IS REPEATED USING SETTINGS FROM A PREVIOUS STRESS PERIOD.


 STRESS PERIOD 122 IS TRANSIENT

 UBDSV1 SAVING     FLOW-JA-FACE ON UNIT   1016 AT TIME STEP      1, STRESS PERIOD    122
 UBDSV06 SAVING              RIV IN MODEL GWF_1            PACKAGE GWF_1           CONNECTED TO MODEL GWF_1            PACKAGE RIV-1            ON UNIT   1016 AT TIME STEP      1, STRESS PERIOD    122
 UBDSV06 SAVING              RCH IN MODEL GWF_1            PACKAGE GWF_1           CONNECTED TO MODEL GWF_1            PACKAGE RCH_MSW          ON UNIT   1016 AT TIME STEP      1, STRESS PERIOD    122

 HEAD WILL BE SAVED ON UNIT 1017 AT END OF TIME STEP    1, STRESS PERIOD  122


  VOLUME BUDGET FOR ENTIRE MODEL AT END OF TIME STEP    1, STRESS PERIOD 122
  ---------------------------------------------------------------------------------------------------

     CUMULATIVE VOLUME      L**3       RATES FOR THIS TIME STEP      L**3/T          PACKAGE NAME    
     ------------------                 ------------------------                     ----------------

           IN:                                      IN:
           ---                                      ---
              STO-SS =        3006.2454                STO-SS =         126.9395     STORAGE                          
                 RIV =           0.0000                   RIV =           0.0000     RIV-1                            
                 RCH =       25218.7841                   RCH =           5.3870     RCH_MSW                          

            TOTAL IN =       28225.0295              TOTAL IN =         132.3265

          OUT:                                     OUT:
          ----                                     ----
              STO-SS =       25645.1985                STO-SS =          17.5214     STORAGE                          
                 RIV =           0.0000                   RIV =           0.0000     RIV-1                            
                 RCH =        2579.8310                   RCH =         114.8051     RCH_MSW                          

           TOTAL OUT =       28225.0295             TOTAL OUT =         132.3265

            IN - OUT =       1.4990E-07              IN - OUT =       5.5788E-09

 PERCENT DISCREPANCY =           0.00     PERCENT DISCREPANCY =           0.00




         TIME SUMMARY AT END OF TIME STEP    1 IN STRESS PERIOD  122
                    SECONDS     MINUTES      HOURS       DAYS        YEARS
                    -----------------------------------------------------------
   TIME STEP LENGTH  86400.      1440.0      24.000      1.0000     2.73785E-03
 STRESS PERIOD TIME  86400.      1440.0      24.000      1.0000     2.73785E-03
         TOTAL TIME 1.05408E+07 1.75680E+05  2928.0      122.00     0.33402    


end timestep


start timestep kper="123" kstp="1" mode="normal"


 OUTPUT CONTROL FOR STRESS PERIOD 123 IS REPEATED USING SETTINGS FROM A PREVIOUS STRESS PERIOD.


 STRESS PERIOD 123 IS TRANSIENT

 UBDSV1 SAVING     FLOW-JA-FACE ON UNIT   1016 AT TIME STEP      1, STRESS PERIOD    123
 UBDSV06 SAVING              RIV IN MODEL GWF_1            PACKAGE GWF_1           CONNECTED TO MODEL GWF_1            PACKAGE RIV-1            ON UNIT   1016 AT TIME STEP      1, STRESS PERIOD    123
 UBDSV06 SAVING              RCH IN MODEL GWF_1            PACKAGE GWF_1           CONNECTED TO MODEL GWF_1            PACKAGE RCH_MSW          ON UNIT   1016 AT TIME STEP      1, STRESS PERIOD    123

 HEAD WILL BE SAVED ON UNIT 1017 AT END OF TIME STEP    1, STRESS PERIOD  123


  VOLUME BUDGET FOR ENTIRE MODEL AT END OF TIME STEP    1, STRESS PERIOD 123
  ---------------------------------------------------------------------------------------------------

     CUMULATIVE VOLUME      L**3       RATES FOR THIS TIME STEP      L**3/T          PACKAGE NAME    
     ------------------                 ------------------------                     ----------------

           IN:                                      IN:
           ---                                      ---
              STO-SS =        3139.7923                STO-SS =         133.5469     STORAGE                          
                 RIV =           0.0000                   RIV =           0.0000     RIV-1                            
                 RCH =       25223.9340                   RCH =           5.1499     RCH_MSW                          

            TOTAL IN =       28363.7263              TOTAL IN =         138.6968

          OUT:                                     OUT:
          ----                                     ----
              STO-SS =       25662.5999                STO-SS =          17.4014     STORAGE                          
                 RIV =           0.0000                   RIV =           0.0000     RIV-1                            
                 RCH =        2701.1264                   RCH =         121.2955     RCH_MSW                          

           TOTAL OUT =       28363.7263             TOTAL OUT =         138.6968

            IN - OUT =       1.5504E-07              IN - OUT =       5.1428E-09

 PERCENT DISCREPANCY =           0.00     PERCENT DISCREPANCY =           0.00




         TIME SUMMARY AT END OF TIME STEP    1 IN STRESS PERIOD  123
                    SECONDS     MINUTES      HOURS       DAYS        YEARS
                    -----------------------------------------------------------
   TIME STEP LENGTH  86400.      1440.0      24.000      1.0000     2.73785E-03
 STRESS PERIOD TIME  86400.      1440.0      24.000      1.0000     2.73785E-03
         TOTAL TIME 1.06272E+07 1.77120E+05  2952.0      123.00     0.33676    


end timestep


start timestep kper="124" kstp="1" mode="normal"


 OUTPUT CONTROL FOR STRESS PERIOD 124 IS REPEATED USING SETTINGS FROM A PREVIOUS STRESS PERIOD.


 STRESS PERIOD 124 IS TRANSIENT

 UBDSV1 SAVING     FLOW-JA-FACE ON UNIT   1016 AT TIME STEP      1, STRESS PERIOD    124
 UBDSV06 SAVING              RIV IN MODEL GWF_1            PACKAGE GWF_1           CONNECTED TO MODEL GWF_1            PACKAGE RIV-1            ON UNIT   1016 AT TIME STEP      1, STRESS PERIOD    124
 UBDSV06 SAVING              RCH IN MODEL GWF_1            PACKAGE GWF_1           CONNECTED TO MODEL GWF_1            PACKAGE RCH_MSW          ON UNIT   1016 AT TIME STEP      1, STRESS PERIOD    124

 HEAD WILL BE SAVED ON UNIT 1017 AT END OF TIME STEP    1, STRESS PERIOD  124


  VOLUME BUDGET FOR ENTIRE MODEL AT END OF TIME STEP    1, STRESS PERIOD 124
  ---------------------------------------------------------------------------------------------------

     CUMULATIVE VOLUME      L**3       RATES FOR THIS TIME STEP      L**3/T          PACKAGE NAME    
     ------------------                 ------------------------                     ----------------

           IN:                                      IN:
           ---                                      ---
              STO-SS =        3276.4738                STO-SS =         136.6816     STORAGE                          
                 RIV =           0.0000                   RIV =           0.0000     RIV-1                            
                 RCH =       25228.8503                   RCH =           4.9163     RCH_MSW                          

            TOTAL IN =       28505.3242              TOTAL IN =         141.5978

          OUT:                                     OUT:
          ----                                     ----
              STO-SS =       25679.8820                STO-SS =          17.2821     STORAGE                          
                 RIV =           0.0000                   RIV =           0.0000     RIV-1                            
                 RCH =        2825.4421                   RCH =         124.3157     RCH_MSW                          

           TOTAL OUT =       28505.3242             TOTAL OUT =         141.5978

            IN - OUT =       1.5570E-07              IN - OUT =       6.5472E-10

 PERCENT DISCREPANCY =           0.00     PERCENT DISCREPANCY =           0.00




         TIME SUMMARY AT END OF TIME STEP    1 IN STRESS PERIOD  124
                    SECONDS     MINUTES      HOURS       DAYS        YEARS
                    -----------------------------------------------------------
   TIME STEP LENGTH  86400.      1440.0      24.000      1.0000     2.73785E-03
 STRESS PERIOD TIME  86400.      1440.0      24.000      1.0000     2.73785E-03
         TOTAL TIME 1.07136E+07 1.78560E+05  2976.0      124.00     0.33949    


end timestep


start timestep kper="125" kstp="1" mode="normal"


 OUTPUT CONTROL FOR STRESS PERIOD 125 IS REPEATED USING SETTINGS FROM A PREVIOUS STRESS PERIOD.


 STRESS PERIOD 125 IS TRANSIENT

 UBDSV1 SAVING     FLOW-JA-FACE ON UNIT   1016 AT TIME STEP      1, STRESS PERIOD    125
 UBDSV06 SAVING              RIV IN MODEL GWF_1            PACKAGE GWF_1           CONNECTED TO MODEL GWF_1            PACKAGE RIV-1            ON UNIT   1016 AT TIME STEP      1, STRESS PERIOD    125
 UBDSV06 SAVING              RCH IN MODEL GWF_1            PACKAGE GWF_1           CONNECTED TO MODEL GWF_1            PACKAGE RCH_MSW          ON UNIT   1016 AT TIME STEP      1, STRESS PERIOD    125

 HEAD WILL BE SAVED ON UNIT 1017 AT END OF TIME STEP    1, STRESS PERIOD  125


  VOLUME BUDGET FOR ENTIRE MODEL AT END OF TIME STEP    1, STRESS PERIOD 125
  ---------------------------------------------------------------------------------------------------

     CUMULATIVE VOLUME      L**3       RATES FOR THIS TIME STEP      L**3/T          PACKAGE NAME    
     ------------------                 ------------------------                     ----------------

           IN:                                      IN:
           ---                                      ---
              STO-SS =        3416.4333                STO-SS =         139.9594     STORAGE                          
                 RIV =           0.0000                   RIV =           0.0000     RIV-1                            
                 RCH =       25233.5356                   RCH =           4.6853     RCH_MSW                          

            TOTAL IN =       28649.9689              TOTAL IN =         144.6447

          OUT:                                     OUT:
          ----                                     ----
              STO-SS =       25697.0462                STO-SS =          17.1641     STORAGE                          
                 RIV =           0.0000                   RIV =           0.0000     RIV-1                            
                 RCH =        2952.9227                   RCH =         127.4806     RCH_MSW                          

           TOTAL OUT =       28649.9689             TOTAL OUT =         144.6447

            IN - OUT =       1.5598E-07              IN - OUT =       2.7975E-10

 PERCENT DISCREPANCY =           0.00     PERCENT DISCREPANCY =           0.00




         TIME SUMMARY AT END OF TIME STEP    1 IN STRESS PERIOD  125
                    SECONDS     MINUTES      HOURS       DAYS        YEARS
                    -----------------------------------------------------------
   TIME STEP LENGTH  86400.      1440.0      24.000      1.0000     2.73785E-03
 STRESS PERIOD TIME  86400.      1440.0      24.000      1.0000     2.73785E-03
         TOTAL TIME 1.08000E+07 1.80000E+05  3000.0      125.00     0.34223    


end timestep


start timestep kper="126" kstp="1" mode="normal"


 OUTPUT CONTROL FOR STRESS PERIOD 126 IS REPEATED USING SETTINGS FROM A PREVIOUS STRESS PERIOD.


 STRESS PERIOD 126 IS TRANSIENT

 UBDSV1 SAVING     FLOW-JA-FACE ON UNIT   1016 AT TIME STEP      1, STRESS PERIOD    126
 UBDSV06 SAVING              RIV IN MODEL GWF_1            PACKAGE GWF_1           CONNECTED TO MODEL GWF_1            PACKAGE RIV-1            ON UNIT   1016 AT TIME STEP      1, STRESS PERIOD    126
 UBDSV06 SAVING              RCH IN MODEL GWF_1            PACKAGE GWF_1           CONNECTED TO MODEL GWF_1            PACKAGE RCH_MSW          ON UNIT   1016 AT TIME STEP      1, STRESS PERIOD    126

 HEAD WILL BE SAVED ON UNIT 1017 AT END OF TIME STEP    1, STRESS PERIOD  126


  VOLUME BUDGET FOR ENTIRE MODEL AT END OF TIME STEP    1, STRESS PERIOD 126
  ---------------------------------------------------------------------------------------------------

     CUMULATIVE VOLUME      L**3       RATES FOR THIS TIME STEP      L**3/T          PACKAGE NAME    
     ------------------                 ------------------------                     ----------------

           IN:                                      IN:
           ---                                      ---
              STO-SS =        3560.7418                STO-SS =         144.3085     STORAGE                          
                 RIV =           0.0000                   RIV =           0.0000     RIV-1                            
                 RCH =       25237.9967                   RCH =           4.4611     RCH_MSW                          

            TOTAL IN =       28798.7385              TOTAL IN =         148.7696

          OUT:                                     OUT:
          ----                                     ----
              STO-SS =       25714.0939                STO-SS =          17.0478     STORAGE                          
                 RIV =           0.0000                   RIV =           0.0000     RIV-1                            
                 RCH =        3084.6445                   RCH =         131.7219     RCH_MSW                          

           TOTAL OUT =       28798.7385             TOTAL OUT =         148.7696

            IN - OUT =       1.6005E-07              IN - OUT =       4.0729E-09

 PERCENT DISCREPANCY =           0.00     PERCENT DISCREPANCY =           0.00




         TIME SUMMARY AT END OF TIME STEP    1 IN STRESS PERIOD  126
                    SECONDS     MINUTES      HOURS       DAYS        YEARS
                    -----------------------------------------------------------
   TIME STEP LENGTH  86400.      1440.0      24.000      1.0000     2.73785E-03
 STRESS PERIOD TIME  86400.      1440.0      24.000      1.0000     2.73785E-03
         TOTAL TIME 1.08864E+07 1.81440E+05  3024.0      126.00     0.34497    


end timestep


start timestep kper="127" kstp="1" mode="normal"


 OUTPUT CONTROL FOR STRESS PERIOD 127 IS REPEATED USING SETTINGS FROM A PREVIOUS STRESS PERIOD.


 STRESS PERIOD 127 IS TRANSIENT

 UBDSV1 SAVING     FLOW-JA-FACE ON UNIT   1016 AT TIME STEP      1, STRESS PERIOD    127
 UBDSV06 SAVING              RIV IN MODEL GWF_1            PACKAGE GWF_1           CONNECTED TO MODEL GWF_1            PACKAGE RIV-1            ON UNIT   1016 AT TIME STEP      1, STRESS PERIOD    127
 UBDSV06 SAVING              RCH IN MODEL GWF_1            PACKAGE GWF_1           CONNECTED TO MODEL GWF_1            PACKAGE RCH_MSW          ON UNIT   1016 AT TIME STEP      1, STRESS PERIOD    127

 HEAD WILL BE SAVED ON UNIT 1017 AT END OF TIME STEP    1, STRESS PERIOD  127


  VOLUME BUDGET FOR ENTIRE MODEL AT END OF TIME STEP    1, STRESS PERIOD 127
  ---------------------------------------------------------------------------------------------------

     CUMULATIVE VOLUME      L**3       RATES FOR THIS TIME STEP      L**3/T          PACKAGE NAME    
     ------------------                 ------------------------                     ----------------

           IN:                                      IN:
           ---                                      ---
              STO-SS =        3707.7768                STO-SS =         147.0350     STORAGE                          
                 RIV =           0.0000                   RIV =           0.0000     RIV-1                            
                 RCH =       25242.2403                   RCH =           4.2436     RCH_MSW                          

            TOTAL IN =       28950.0171              TOTAL IN =         151.2786

          OUT:                                     OUT:
          ----                                     ----
              STO-SS =       25731.0268                STO-SS =          16.9329     STORAGE                          
                 RIV =           0.0000                   RIV =           0.0000     RIV-1                            
                 RCH =        3218.9903                   RCH =         134.3457     RCH_MSW                          

           TOTAL OUT =       28950.0171             TOTAL OUT =         151.2786

            IN - OUT =       1.5744E-07              IN - OUT =      -2.6128E-09

 PERCENT DISCREPANCY =           0.00     PERCENT DISCREPANCY =          -0.00




         TIME SUMMARY AT END OF TIME STEP    1 IN STRESS PERIOD  127
                    SECONDS     MINUTES      HOURS       DAYS        YEARS
                    -----------------------------------------------------------
   TIME STEP LENGTH  86400.      1440.0      24.000      1.0000     2.73785E-03
 STRESS PERIOD TIME  86400.      1440.0      24.000      1.0000     2.73785E-03
         TOTAL TIME 1.09728E+07 1.82880E+05  3048.0      127.00     0.34771    


end timestep


start timestep kper="128" kstp="1" mode="normal"


 OUTPUT CONTROL FOR STRESS PERIOD 128 IS REPEATED USING SETTINGS FROM A PREVIOUS STRESS PERIOD.


 STRESS PERIOD 128 IS TRANSIENT

 UBDSV1 SAVING     FLOW-JA-FACE ON UNIT   1016 AT TIME STEP      1, STRESS PERIOD    128
 UBDSV06 SAVING              RIV IN MODEL GWF_1            PACKAGE GWF_1           CONNECTED TO MODEL GWF_1            PACKAGE RIV-1            ON UNIT   1016 AT TIME STEP      1, STRESS PERIOD    128
 UBDSV06 SAVING              RCH IN MODEL GWF_1            PACKAGE GWF_1           CONNECTED TO MODEL GWF_1            PACKAGE RCH_MSW          ON UNIT   1016 AT TIME STEP      1, STRESS PERIOD    128

 HEAD WILL BE SAVED ON UNIT 1017 AT END OF TIME STEP    1, STRESS PERIOD  128


  VOLUME BUDGET FOR ENTIRE MODEL AT END OF TIME STEP    1, STRESS PERIOD 128
  ---------------------------------------------------------------------------------------------------

     CUMULATIVE VOLUME      L**3       RATES FOR THIS TIME STEP      L**3/T          PACKAGE NAME    
     ------------------                 ------------------------                     ----------------

           IN:                                      IN:
           ---                                      ---
              STO-SS =        3855.3970                STO-SS =         147.6202     STORAGE                          
                 RIV =           0.0000                   RIV =           0.0000     RIV-1                            
                 RCH =       25246.2722                   RCH =           4.0319     RCH_MSW                          

            TOTAL IN =       29101.6692              TOTAL IN =         151.6521

          OUT:                                     OUT:
          ----                                     ----
              STO-SS =       25747.8456                STO-SS =          16.8188     STORAGE                          
                 RIV =           0.0000                   RIV =           0.0000     RIV-1                            
                 RCH =        3353.8236                   RCH =         134.8333     RCH_MSW                          

           TOTAL OUT =       29101.6692             TOTAL OUT =         151.6521

            IN - OUT =       1.5732E-07              IN - OUT =      -1.1650E-10

 PERCENT DISCREPANCY =           0.00     PERCENT DISCREPANCY =          -0.00




         TIME SUMMARY AT END OF TIME STEP    1 IN STRESS PERIOD  128
                    SECONDS     MINUTES      HOURS       DAYS        YEARS
                    -----------------------------------------------------------
   TIME STEP LENGTH  86400.      1440.0      24.000      1.0000     2.73785E-03
 STRESS PERIOD TIME  86400.      1440.0      24.000      1.0000     2.73785E-03
         TOTAL TIME 1.10592E+07 1.84320E+05  3072.0      128.00     0.35044    


end timestep


start timestep kper="129" kstp="1" mode="normal"


 OUTPUT CONTROL FOR STRESS PERIOD 129 IS REPEATED USING SETTINGS FROM A PREVIOUS STRESS PERIOD.


 STRESS PERIOD 129 IS TRANSIENT

 UBDSV1 SAVING     FLOW-JA-FACE ON UNIT   1016 AT TIME STEP      1, STRESS PERIOD    129
 UBDSV06 SAVING              RIV IN MODEL GWF_1            PACKAGE GWF_1           CONNECTED TO MODEL GWF_1            PACKAGE RIV-1            ON UNIT   1016 AT TIME STEP      1, STRESS PERIOD    129
 UBDSV06 SAVING              RCH IN MODEL GWF_1            PACKAGE GWF_1           CONNECTED TO MODEL GWF_1            PACKAGE RCH_MSW          ON UNIT   1016 AT TIME STEP      1, STRESS PERIOD    129

 HEAD WILL BE SAVED ON UNIT 1017 AT END OF TIME STEP    1, STRESS PERIOD  129


  VOLUME BUDGET FOR ENTIRE MODEL AT END OF TIME STEP    1, STRESS PERIOD 129
  ---------------------------------------------------------------------------------------------------

     CUMULATIVE VOLUME      L**3       RATES FOR THIS TIME STEP      L**3/T          PACKAGE NAME    
     ------------------                 ------------------------                     ----------------

           IN:                                      IN:
           ---                                      ---
              STO-SS =        3994.6296                STO-SS =         139.2326     STORAGE                          
                 RIV =           0.0000                   RIV =           0.0000     RIV-1                            
                 RCH =       25252.1165                   RCH =           5.8442     RCH_MSW                          

            TOTAL IN =       29246.7461              TOTAL IN =         145.0769

          OUT:                                     OUT:
          ----                                     ----
              STO-SS =       25765.0625                STO-SS =          17.2169     STORAGE                          
                 RIV =           0.0000                   RIV =           0.0000     RIV-1                            
                 RCH =        3481.6836                   RCH =         127.8600     RCH_MSW                          

           TOTAL OUT =       29246.7461             TOTAL OUT =         145.0769

            IN - OUT =       1.5508E-07              IN - OUT =      -2.2458E-09

 PERCENT DISCREPANCY =           0.00     PERCENT DISCREPANCY =          -0.00




         TIME SUMMARY AT END OF TIME STEP    1 IN STRESS PERIOD  129
                    SECONDS     MINUTES      HOURS       DAYS        YEARS
                    -----------------------------------------------------------
   TIME STEP LENGTH  86400.      1440.0      24.000      1.0000     2.73785E-03
 STRESS PERIOD TIME  86400.      1440.0      24.000      1.0000     2.73785E-03
         TOTAL TIME 1.11456E+07 1.85760E+05  3096.0      129.00     0.35318    


end timestep


start timestep kper="130" kstp="1" mode="normal"


 OUTPUT CONTROL FOR STRESS PERIOD 130 IS REPEATED USING SETTINGS FROM A PREVIOUS STRESS PERIOD.


 STRESS PERIOD 130 IS TRANSIENT

 UBDSV1 SAVING     FLOW-JA-FACE ON UNIT   1016 AT TIME STEP      1, STRESS PERIOD    130
 UBDSV06 SAVING              RIV IN MODEL GWF_1            PACKAGE GWF_1           CONNECTED TO MODEL GWF_1            PACKAGE RIV-1            ON UNIT   1016 AT TIME STEP      1, STRESS PERIOD    130
 UBDSV06 SAVING              RCH IN MODEL GWF_1            PACKAGE GWF_1           CONNECTED TO MODEL GWF_1            PACKAGE RCH_MSW          ON UNIT   1016 AT TIME STEP      1, STRESS PERIOD    130

 HEAD WILL BE SAVED ON UNIT 1017 AT END OF TIME STEP    1, STRESS PERIOD  130


  VOLUME BUDGET FOR ENTIRE MODEL AT END OF TIME STEP    1, STRESS PERIOD 130
  ---------------------------------------------------------------------------------------------------

     CUMULATIVE VOLUME      L**3       RATES FOR THIS TIME STEP      L**3/T          PACKAGE NAME    
     ------------------                 ------------------------                     ----------------

           IN:                                      IN:
           ---                                      ---
              STO-SS =        4135.6793                STO-SS =         141.0498     STORAGE                          
                 RIV =           0.0000                   RIV =           0.0000     RIV-1                            
                 RCH =       25255.6902                   RCH =           3.5737     RCH_MSW                          

            TOTAL IN =       29391.3696              TOTAL IN =         144.6235

          OUT:                                     OUT:
          ----                                     ----
              STO-SS =       25781.6444                STO-SS =          16.5819     STORAGE                          
                 RIV =           0.0000                   RIV =           0.0000     RIV-1                            
                 RCH =        3609.7252                   RCH =         128.0416     RCH_MSW                          

           TOTAL OUT =       29391.3696             TOTAL OUT =         144.6235

            IN - OUT =       1.4175E-07              IN - OUT =      -1.3327E-08

 PERCENT DISCREPANCY =           0.00     PERCENT DISCREPANCY =          -0.00




         TIME SUMMARY AT END OF TIME STEP    1 IN STRESS PERIOD  130
                    SECONDS     MINUTES      HOURS       DAYS        YEARS
                    -----------------------------------------------------------
   TIME STEP LENGTH  86400.      1440.0      24.000      1.0000     2.73785E-03
 STRESS PERIOD TIME  86400.      1440.0      24.000      1.0000     2.73785E-03
         TOTAL TIME 1.12320E+07 1.87200E+05  3120.0      130.00     0.35592    


end timestep


start timestep kper="131" kstp="1" mode="normal"


 OUTPUT CONTROL FOR STRESS PERIOD 131 IS REPEATED USING SETTINGS FROM A PREVIOUS STRESS PERIOD.


 STRESS PERIOD 131 IS TRANSIENT

 UBDSV1 SAVING     FLOW-JA-FACE ON UNIT   1016 AT TIME STEP      1, STRESS PERIOD    131
 UBDSV06 SAVING              RIV IN MODEL GWF_1            PACKAGE GWF_1           CONNECTED TO MODEL GWF_1            PACKAGE RIV-1            ON UNIT   1016 AT TIME STEP      1, STRESS PERIOD    131
 UBDSV06 SAVING              RCH IN MODEL GWF_1            PACKAGE GWF_1           CONNECTED TO MODEL GWF_1            PACKAGE RCH_MSW          ON UNIT   1016 AT TIME STEP      1, STRESS PERIOD    131

 HEAD WILL BE SAVED ON UNIT 1017 AT END OF TIME STEP    1, STRESS PERIOD  131


  VOLUME BUDGET FOR ENTIRE MODEL AT END OF TIME STEP    1, STRESS PERIOD 131
  ---------------------------------------------------------------------------------------------------

     CUMULATIVE VOLUME      L**3       RATES FOR THIS TIME STEP      L**3/T          PACKAGE NAME    
     ------------------                 ------------------------                     ----------------

           IN:                                      IN:
           ---                                      ---
              STO-SS =        4284.0040                STO-SS =         148.3247     STORAGE                          
                 RIV =           0.0000                   RIV =           0.0000     RIV-1                            
                 RCH =       25259.0605                   RCH =           3.3703     RCH_MSW                          

            TOTAL IN =       29543.0645              TOTAL IN =         151.6950

          OUT:                                     OUT:
          ----                                     ----
              STO-SS =       25798.1037                STO-SS =          16.4594     STORAGE                          
                 RIV =           0.0000                   RIV =           0.0000     RIV-1                            
                 RCH =        3744.9608                   RCH =         135.2356     RCH_MSW                          

           TOTAL OUT =       29543.0645             TOTAL OUT =         151.6950

            IN - OUT =       1.4338E-07              IN - OUT =       1.6301E-09

 PERCENT DISCREPANCY =           0.00     PERCENT DISCREPANCY =           0.00




         TIME SUMMARY AT END OF TIME STEP    1 IN STRESS PERIOD  131
                    SECONDS     MINUTES      HOURS       DAYS        YEARS
                    -----------------------------------------------------------
   TIME STEP LENGTH  86400.      1440.0      24.000      1.0000     2.73785E-03
 STRESS PERIOD TIME  86400.      1440.0      24.000      1.0000     2.73785E-03
         TOTAL TIME 1.13184E+07 1.88640E+05  3144.0      131.00     0.35866    


end timestep


start timestep kper="132" kstp="1" mode="normal"


 OUTPUT CONTROL FOR STRESS PERIOD 132 IS REPEATED USING SETTINGS FROM A PREVIOUS STRESS PERIOD.


 STRESS PERIOD 132 IS TRANSIENT

 UBDSV1 SAVING     FLOW-JA-FACE ON UNIT   1016 AT TIME STEP      1, STRESS PERIOD    132
 UBDSV06 SAVING              RIV IN MODEL GWF_1            PACKAGE GWF_1           CONNECTED TO MODEL GWF_1            PACKAGE RIV-1            ON UNIT   1016 AT TIME STEP      1, STRESS PERIOD    132
 UBDSV06 SAVING              RCH IN MODEL GWF_1            PACKAGE GWF_1           CONNECTED TO MODEL GWF_1            PACKAGE RCH_MSW          ON UNIT   1016 AT TIME STEP      1, STRESS PERIOD    132

 HEAD WILL BE SAVED ON UNIT 1017 AT END OF TIME STEP    1, STRESS PERIOD  132


  VOLUME BUDGET FOR ENTIRE MODEL AT END OF TIME STEP    1, STRESS PERIOD 132
  ---------------------------------------------------------------------------------------------------

     CUMULATIVE VOLUME      L**3       RATES FOR THIS TIME STEP      L**3/T          PACKAGE NAME    
     ------------------                 ------------------------                     ----------------

           IN:                                      IN:
           ---                                      ---
              STO-SS =        4433.5977                STO-SS =         149.5937     STORAGE                          
                 RIV =           0.0000                   RIV =           0.0000     RIV-1                            
                 RCH =       25262.2345                   RCH =           3.1740     RCH_MSW                          

            TOTAL IN =       29695.8322              TOTAL IN =         152.7676

          OUT:                                     OUT:
          ----                                     ----
              STO-SS =       25814.4572                STO-SS =          16.3534     STORAGE                          
                 RIV =           0.0000                   RIV =           0.0000     RIV-1                            
                 RCH =        3881.3750                   RCH =         136.4142     RCH_MSW                          

           TOTAL OUT =       29695.8322             TOTAL OUT =         152.7676

            IN - OUT =       1.4393E-07              IN - OUT =       5.4382E-10

 PERCENT DISCREPANCY =           0.00     PERCENT DISCREPANCY =           0.00




         TIME SUMMARY AT END OF TIME STEP    1 IN STRESS PERIOD  132
                    SECONDS     MINUTES      HOURS       DAYS        YEARS
                    -----------------------------------------------------------
   TIME STEP LENGTH  86400.      1440.0      24.000      1.0000     2.73785E-03
 STRESS PERIOD TIME  86400.      1440.0      24.000      1.0000     2.73785E-03
         TOTAL TIME 1.14048E+07 1.90080E+05  3168.0      132.00     0.36140    


end timestep


start timestep kper="133" kstp="1" mode="normal"


 OUTPUT CONTROL FOR STRESS PERIOD 133 IS REPEATED USING SETTINGS FROM A PREVIOUS STRESS PERIOD.


 STRESS PERIOD 133 IS TRANSIENT

 UBDSV1 SAVING     FLOW-JA-FACE ON UNIT   1016 AT TIME STEP      1, STRESS PERIOD    133
 UBDSV06 SAVING              RIV IN MODEL GWF_1            PACKAGE GWF_1           CONNECTED TO MODEL GWF_1            PACKAGE RIV-1            ON UNIT   1016 AT TIME STEP      1, STRESS PERIOD    133
 UBDSV06 SAVING              RCH IN MODEL GWF_1            PACKAGE GWF_1           CONNECTED TO MODEL GWF_1            PACKAGE RCH_MSW          ON UNIT   1016 AT TIME STEP      1, STRESS PERIOD    133

 HEAD WILL BE SAVED ON UNIT 1017 AT END OF TIME STEP    1, STRESS PERIOD  133


  VOLUME BUDGET FOR ENTIRE MODEL AT END OF TIME STEP    1, STRESS PERIOD 133
  ---------------------------------------------------------------------------------------------------

     CUMULATIVE VOLUME      L**3       RATES FOR THIS TIME STEP      L**3/T          PACKAGE NAME    
     ------------------                 ------------------------                     ----------------

           IN:                                      IN:
           ---                                      ---
              STO-SS =        4584.6862                STO-SS =         151.0885     STORAGE                          
                 RIV =           0.0000                   RIV =           0.0000     RIV-1                            
                 RCH =       25265.2185                   RCH =           2.9840     RCH_MSW                          

            TOTAL IN =       29849.9047              TOTAL IN =         154.0726

          OUT:                                     OUT:
          ----                                     ----
              STO-SS =       25830.7408                STO-SS =          16.2837     STORAGE                          
                 RIV =           0.0000                   RIV =           0.0000     RIV-1                            
                 RCH =        4019.1639                   RCH =         137.7889     RCH_MSW                          

           TOTAL OUT =       29849.9047             TOTAL OUT =         154.0726

            IN - OUT =       1.4745E-07              IN - OUT =       3.5251E-09

 PERCENT DISCREPANCY =           0.00     PERCENT DISCREPANCY =           0.00




         TIME SUMMARY AT END OF TIME STEP    1 IN STRESS PERIOD  133
                    SECONDS     MINUTES      HOURS       DAYS        YEARS
                    -----------------------------------------------------------
   TIME STEP LENGTH  86400.      1440.0      24.000      1.0000     2.73785E-03
 STRESS PERIOD TIME  86400.      1440.0      24.000      1.0000     2.73785E-03
         TOTAL TIME 1.14912E+07 1.91520E+05  3192.0      133.00     0.36413    


end timestep


start timestep kper="134" kstp="1" mode="normal"


 OUTPUT CONTROL FOR STRESS PERIOD 134 IS REPEATED USING SETTINGS FROM A PREVIOUS STRESS PERIOD.


 STRESS PERIOD 134 IS TRANSIENT

 UBDSV1 SAVING     FLOW-JA-FACE ON UNIT   1016 AT TIME STEP      1, STRESS PERIOD    134
 UBDSV06 SAVING              RIV IN MODEL GWF_1            PACKAGE GWF_1           CONNECTED TO MODEL GWF_1            PACKAGE RIV-1            ON UNIT   1016 AT TIME STEP      1, STRESS PERIOD    134
 UBDSV06 SAVING              RCH IN MODEL GWF_1            PACKAGE GWF_1           CONNECTED TO MODEL GWF_1            PACKAGE RCH_MSW          ON UNIT   1016 AT TIME STEP      1, STRESS PERIOD    134

 HEAD WILL BE SAVED ON UNIT 1017 AT END OF TIME STEP    1, STRESS PERIOD  134


  VOLUME BUDGET FOR ENTIRE MODEL AT END OF TIME STEP    1, STRESS PERIOD 134
  ---------------------------------------------------------------------------------------------------

     CUMULATIVE VOLUME      L**3       RATES FOR THIS TIME STEP      L**3/T          PACKAGE NAME    
     ------------------                 ------------------------                     ----------------

           IN:                                      IN:
           ---                                      ---
              STO-SS =        4673.5609                STO-SS =          88.8747     STORAGE                          
                 RIV =           0.0000                   RIV =           0.0000     RIV-1                            
                 RCH =       25326.2145                   RCH =          60.9960     RCH_MSW                          

            TOTAL IN =       29999.7753              TOTAL IN =         149.8706

          OUT:                                     OUT:
          ----                                     ----
              STO-SS =       25901.9950                STO-SS =          71.2541     STORAGE                          
                 RIV =           0.0000                   RIV =           0.0000     RIV-1                            
                 RCH =        4097.7804                   RCH =          78.6165     RCH_MSW                          

           TOTAL OUT =       29999.7753             TOTAL OUT =         149.8706

            IN - OUT =       1.4846E-07              IN - OUT =       1.0129E-09

 PERCENT DISCREPANCY =           0.00     PERCENT DISCREPANCY =           0.00




         TIME SUMMARY AT END OF TIME STEP    1 IN STRESS PERIOD  134
                    SECONDS     MINUTES      HOURS       DAYS        YEARS
                    -----------------------------------------------------------
   TIME STEP LENGTH  86400.      1440.0      24.000      1.0000     2.73785E-03
 STRESS PERIOD TIME  86400.      1440.0      24.000      1.0000     2.73785E-03
         TOTAL TIME 1.15776E+07 1.92960E+05  3216.0      134.00     0.36687    


end timestep


start timestep kper="135" kstp="1" mode="normal"


 OUTPUT CONTROL FOR STRESS PERIOD 135 IS REPEATED USING SETTINGS FROM A PREVIOUS STRESS PERIOD.


 STRESS PERIOD 135 IS TRANSIENT

 UBDSV1 SAVING     FLOW-JA-FACE ON UNIT   1016 AT TIME STEP      1, STRESS PERIOD    135
 UBDSV06 SAVING              RIV IN MODEL GWF_1            PACKAGE GWF_1           CONNECTED TO MODEL GWF_1            PACKAGE RIV-1            ON UNIT   1016 AT TIME STEP      1, STRESS PERIOD    135
 UBDSV06 SAVING              RCH IN MODEL GWF_1            PACKAGE GWF_1           CONNECTED TO MODEL GWF_1            PACKAGE RCH_MSW          ON UNIT   1016 AT TIME STEP      1, STRESS PERIOD    135

 HEAD WILL BE SAVED ON UNIT 1017 AT END OF TIME STEP    1, STRESS PERIOD  135


  VOLUME BUDGET FOR ENTIRE MODEL AT END OF TIME STEP    1, STRESS PERIOD 135
  ---------------------------------------------------------------------------------------------------

     CUMULATIVE VOLUME      L**3       RATES FOR THIS TIME STEP      L**3/T          PACKAGE NAME    
     ------------------                 ------------------------                     ----------------

           IN:                                      IN:
           ---                                      ---
              STO-SS =        4758.2640                STO-SS =          84.7031     STORAGE                          
                 RIV =           0.0000                   RIV =           0.0000     RIV-1                            
                 RCH =       25347.1485                   RCH =          20.9340     RCH_MSW                          

            TOTAL IN =       30105.4125              TOTAL IN =         105.6371

          OUT:                                     OUT:
          ----                                     ----
              STO-SS =       25933.1484                STO-SS =          31.1535     STORAGE                          
                 RIV =           0.0000                   RIV =           0.0000     RIV-1                            
                 RCH =        4172.2640                   RCH =          74.4837     RCH_MSW                          

           TOTAL OUT =       30105.4125             TOTAL OUT =         105.6371

            IN - OUT =       1.5827E-07              IN - OUT =       9.8095E-09

 PERCENT DISCREPANCY =           0.00     PERCENT DISCREPANCY =           0.00




         TIME SUMMARY AT END OF TIME STEP    1 IN STRESS PERIOD  135
                    SECONDS     MINUTES      HOURS       DAYS        YEARS
                    -----------------------------------------------------------
   TIME STEP LENGTH  86400.      1440.0      24.000      1.0000     2.73785E-03
 STRESS PERIOD TIME  86400.      1440.0      24.000      1.0000     2.73785E-03
         TOTAL TIME 1.16640E+07 1.94400E+05  3240.0      135.00     0.36961    


end timestep


start timestep kper="136" kstp="1" mode="normal"


 OUTPUT CONTROL FOR STRESS PERIOD 136 IS REPEATED USING SETTINGS FROM A PREVIOUS STRESS PERIOD.


 STRESS PERIOD 136 IS TRANSIENT

 UBDSV1 SAVING     FLOW-JA-FACE ON UNIT   1016 AT TIME STEP      1, STRESS PERIOD    136
 UBDSV06 SAVING              RIV IN MODEL GWF_1            PACKAGE GWF_1           CONNECTED TO MODEL GWF_1            PACKAGE RIV-1            ON UNIT   1016 AT TIME STEP      1, STRESS PERIOD    136
 UBDSV06 SAVING              RCH IN MODEL GWF_1            PACKAGE GWF_1           CONNECTED TO MODEL GWF_1            PACKAGE RCH_MSW          ON UNIT   1016 AT TIME STEP      1, STRESS PERIOD    136

 HEAD WILL BE SAVED ON UNIT 1017 AT END OF TIME STEP    1, STRESS PERIOD  136


  VOLUME BUDGET FOR ENTIRE MODEL AT END OF TIME STEP    1, STRESS PERIOD 136
  ---------------------------------------------------------------------------------------------------

     CUMULATIVE VOLUME      L**3       RATES FOR THIS TIME STEP      L**3/T          PACKAGE NAME    
     ------------------                 ------------------------                     ----------------

           IN:                                      IN:
           ---                                      ---
              STO-SS =        4833.9271                STO-SS =          75.6631     STORAGE                          
                 RIV =           0.0000                   RIV =           0.0000     RIV-1                            
                 RCH =       25558.7247                   RCH =         211.5762     RCH_MSW                          

            TOTAL IN =       30392.6518              TOTAL IN =         287.2393

          OUT:                                     OUT:
          ----                                     ----
              STO-SS =       26154.4687                STO-SS =         221.3203     STORAGE                          
                 RIV =           0.0000                   RIV =           0.0000     RIV-1                            
                 RCH =        4238.1830                   RCH =          65.9190     RCH_MSW                          

           TOTAL OUT =       30392.6518             TOTAL OUT =         287.2393

            IN - OUT =       1.9583E-07              IN - OUT =       3.7556E-08

 PERCENT DISCREPANCY =           0.00     PERCENT DISCREPANCY =           0.00




         TIME SUMMARY AT END OF TIME STEP    1 IN STRESS PERIOD  136
                    SECONDS     MINUTES      HOURS       DAYS        YEARS
                    -----------------------------------------------------------
   TIME STEP LENGTH  86400.      1440.0      24.000      1.0000     2.73785E-03
 STRESS PERIOD TIME  86400.      1440.0      24.000      1.0000     2.73785E-03
         TOTAL TIME 1.17504E+07 1.95840E+05  3264.0      136.00     0.37235    


end timestep


start timestep kper="137" kstp="1" mode="normal"


 OUTPUT CONTROL FOR STRESS PERIOD 137 IS REPEATED USING SETTINGS FROM A PREVIOUS STRESS PERIOD.


 STRESS PERIOD 137 IS TRANSIENT

 UBDSV1 SAVING     FLOW-JA-FACE ON UNIT   1016 AT TIME STEP      1, STRESS PERIOD    137
 UBDSV06 SAVING              RIV IN MODEL GWF_1            PACKAGE GWF_1           CONNECTED TO MODEL GWF_1            PACKAGE RIV-1            ON UNIT   1016 AT TIME STEP      1, STRESS PERIOD    137
 UBDSV06 SAVING              RCH IN MODEL GWF_1            PACKAGE GWF_1           CONNECTED TO MODEL GWF_1            PACKAGE RCH_MSW          ON UNIT   1016 AT TIME STEP      1, STRESS PERIOD    137

 HEAD WILL BE SAVED ON UNIT 1017 AT END OF TIME STEP    1, STRESS PERIOD  137


  VOLUME BUDGET FOR ENTIRE MODEL AT END OF TIME STEP    1, STRESS PERIOD 137
  ---------------------------------------------------------------------------------------------------

     CUMULATIVE VOLUME      L**3       RATES FOR THIS TIME STEP      L**3/T          PACKAGE NAME    
     ------------------                 ------------------------                     ----------------

           IN:                                      IN:
           ---                                      ---
              STO-SS =        4903.3760                STO-SS =          69.4489     STORAGE                          
                 RIV =           0.0000                   RIV =           0.0000     RIV-1                            
                 RCH =       25873.4431                   RCH =         314.7184     RCH_MSW                          

            TOTAL IN =       30776.8191              TOTAL IN =         384.1673

          OUT:                                     OUT:
          ----                                     ----
              STO-SS =       26478.8958                STO-SS =         324.4271     STORAGE                          
                 RIV =           0.0000                   RIV =           0.0000     RIV-1                            
                 RCH =        4297.9233                   RCH =          59.7403     RCH_MSW                          

           TOTAL OUT =       30776.8191             TOTAL OUT =         384.1673

            IN - OUT =       2.2899E-07              IN - OUT =       3.3166E-08

 PERCENT DISCREPANCY =           0.00     PERCENT DISCREPANCY =           0.00




         TIME SUMMARY AT END OF TIME STEP    1 IN STRESS PERIOD  137
                    SECONDS     MINUTES      HOURS       DAYS        YEARS
                    -----------------------------------------------------------
   TIME STEP LENGTH  86400.      1440.0      24.000      1.0000     2.73785E-03
 STRESS PERIOD TIME  86400.      1440.0      24.000      1.0000     2.73785E-03
         TOTAL TIME 1.18368E+07 1.97280E+05  3288.0      137.00     0.37509    


end timestep


start timestep kper="138" kstp="1" mode="normal"


 OUTPUT CONTROL FOR STRESS PERIOD 138 IS REPEATED USING SETTINGS FROM A PREVIOUS STRESS PERIOD.


 STRESS PERIOD 138 IS TRANSIENT

 UBDSV1 SAVING     FLOW-JA-FACE ON UNIT   1016 AT TIME STEP      1, STRESS PERIOD    138
 UBDSV06 SAVING              RIV IN MODEL GWF_1            PACKAGE GWF_1           CONNECTED TO MODEL GWF_1            PACKAGE RIV-1            ON UNIT   1016 AT TIME STEP      1, STRESS PERIOD    138
 UBDSV06 SAVING              RCH IN MODEL GWF_1            PACKAGE GWF_1           CONNECTED TO MODEL GWF_1            PACKAGE RCH_MSW          ON UNIT   1016 AT TIME STEP      1, STRESS PERIOD    138

 HEAD WILL BE SAVED ON UNIT 1017 AT END OF TIME STEP    1, STRESS PERIOD  138


  VOLUME BUDGET FOR ENTIRE MODEL AT END OF TIME STEP    1, STRESS PERIOD 138
  ---------------------------------------------------------------------------------------------------

     CUMULATIVE VOLUME      L**3       RATES FOR THIS TIME STEP      L**3/T          PACKAGE NAME    
     ------------------                 ------------------------                     ----------------

           IN:                                      IN:
           ---                                      ---
              STO-SS =        4963.4867                STO-SS =          60.1107     STORAGE                          
                 RIV =           0.0000                   RIV =           0.0000     RIV-1                            
                 RCH =       26003.8428                   RCH =         130.3997     RCH_MSW                          

            TOTAL IN =       30967.3295              TOTAL IN =         190.5104

          OUT:                                     OUT:
          ----                                     ----
              STO-SS =       26618.2493                STO-SS =         139.3535     STORAGE                          
                 RIV =           0.0000                   RIV =           0.0000     RIV-1                            
                 RCH =        4349.0803                   RCH =          51.1570     RCH_MSW                          

           TOTAL OUT =       30967.3295             TOTAL OUT =         190.5104

            IN - OUT =       2.2387E-07              IN - OUT =      -5.1247E-09

 PERCENT DISCREPANCY =           0.00     PERCENT DISCREPANCY =          -0.00




         TIME SUMMARY AT END OF TIME STEP    1 IN STRESS PERIOD  138
                    SECONDS     MINUTES      HOURS       DAYS        YEARS
                    -----------------------------------------------------------
   TIME STEP LENGTH  86400.      1440.0      24.000      1.0000     2.73785E-03
 STRESS PERIOD TIME  86400.      1440.0      24.000      1.0000     2.73785E-03
         TOTAL TIME 1.19232E+07 1.98720E+05  3312.0      138.00     0.37782    


end timestep


start timestep kper="139" kstp="1" mode="normal"


 OUTPUT CONTROL FOR STRESS PERIOD 139 IS REPEATED USING SETTINGS FROM A PREVIOUS STRESS PERIOD.


 STRESS PERIOD 139 IS TRANSIENT

 UBDSV1 SAVING     FLOW-JA-FACE ON UNIT   1016 AT TIME STEP      1, STRESS PERIOD    139
 UBDSV06 SAVING              RIV IN MODEL GWF_1            PACKAGE GWF_1           CONNECTED TO MODEL GWF_1            PACKAGE RIV-1            ON UNIT   1016 AT TIME STEP      1, STRESS PERIOD    139
 UBDSV06 SAVING              RCH IN MODEL GWF_1            PACKAGE GWF_1           CONNECTED TO MODEL GWF_1            PACKAGE RCH_MSW          ON UNIT   1016 AT TIME STEP      1, STRESS PERIOD    139

 HEAD WILL BE SAVED ON UNIT 1017 AT END OF TIME STEP    1, STRESS PERIOD  139


  VOLUME BUDGET FOR ENTIRE MODEL AT END OF TIME STEP    1, STRESS PERIOD 139
  ---------------------------------------------------------------------------------------------------

     CUMULATIVE VOLUME      L**3       RATES FOR THIS TIME STEP      L**3/T          PACKAGE NAME    
     ------------------                 ------------------------                     ----------------

           IN:                                      IN:
           ---                                      ---
              STO-SS =        5018.2437                STO-SS =          54.7570     STORAGE                          
                 RIV =           0.0000                   RIV =           0.0000     RIV-1                            
                 RCH =       26026.6995                   RCH =          22.8566     RCH_MSW                          

            TOTAL IN =       31044.9431              TOTAL IN =          77.6136

          OUT:                                     OUT:
          ----                                     ----
              STO-SS =       26650.9480                STO-SS =          32.6987     STORAGE                          
                 RIV =           0.0000                   RIV =           0.0000     RIV-1                            
                 RCH =        4393.9952                   RCH =          44.9149     RCH_MSW                          

           TOTAL OUT =       31044.9431             TOTAL OUT =          77.6136

            IN - OUT =       2.2680E-07              IN - OUT =       2.9238E-09

 PERCENT DISCREPANCY =           0.00     PERCENT DISCREPANCY =           0.00




         TIME SUMMARY AT END OF TIME STEP    1 IN STRESS PERIOD  139
                    SECONDS     MINUTES      HOURS       DAYS        YEARS
                    -----------------------------------------------------------
   TIME STEP LENGTH  86400.      1440.0      24.000      1.0000     2.73785E-03
 STRESS PERIOD TIME  86400.      1440.0      24.000      1.0000     2.73785E-03
         TOTAL TIME 1.20096E+07 2.00160E+05  3336.0      139.00     0.38056    


end timestep


start timestep kper="140" kstp="1" mode="normal"


 OUTPUT CONTROL FOR STRESS PERIOD 140 IS REPEATED USING SETTINGS FROM A PREVIOUS STRESS PERIOD.


 STRESS PERIOD 140 IS TRANSIENT

 UBDSV1 SAVING     FLOW-JA-FACE ON UNIT   1016 AT TIME STEP      1, STRESS PERIOD    140
 UBDSV06 SAVING              RIV IN MODEL GWF_1            PACKAGE GWF_1           CONNECTED TO MODEL GWF_1            PACKAGE RIV-1            ON UNIT   1016 AT TIME STEP      1, STRESS PERIOD    140
 UBDSV06 SAVING              RCH IN MODEL GWF_1            PACKAGE GWF_1           CONNECTED TO MODEL GWF_1            PACKAGE RCH_MSW          ON UNIT   1016 AT TIME STEP      1, STRESS PERIOD    140

 HEAD WILL BE SAVED ON UNIT 1017 AT END OF TIME STEP    1, STRESS PERIOD  140


  VOLUME BUDGET FOR ENTIRE MODEL AT END OF TIME STEP    1, STRESS PERIOD 140
  ---------------------------------------------------------------------------------------------------

     CUMULATIVE VOLUME      L**3       RATES FOR THIS TIME STEP      L**3/T          PACKAGE NAME    
     ------------------                 ------------------------                     ----------------

           IN:                                      IN:
           ---                                      ---
              STO-SS =        5092.0961                STO-SS =          73.8525     STORAGE                          
                 RIV =           0.0000                   RIV =           0.0000     RIV-1                            
                 RCH =       26033.7536                   RCH =           7.0542     RCH_MSW                          

            TOTAL IN =       31125.8497              TOTAL IN =          80.9066

          OUT:                                     OUT:
          ----                                     ----
              STO-SS =       26668.5857                STO-SS =          17.6378     STORAGE                          
                 RIV =           0.0000                   RIV =           0.0000     RIV-1                            
                 RCH =        4457.2640                   RCH =          63.2689     RCH_MSW                          

           TOTAL OUT =       31125.8497             TOTAL OUT =          80.9066

            IN - OUT =       2.1499E-07              IN - OUT =      -1.1804E-08

 PERCENT DISCREPANCY =           0.00     PERCENT DISCREPANCY =          -0.00




         TIME SUMMARY AT END OF TIME STEP    1 IN STRESS PERIOD  140
                    SECONDS     MINUTES      HOURS       DAYS        YEARS
                    -----------------------------------------------------------
   TIME STEP LENGTH  86400.      1440.0      24.000      1.0000     2.73785E-03
 STRESS PERIOD TIME  86400.      1440.0      24.000      1.0000     2.73785E-03
         TOTAL TIME 1.20960E+07 2.01600E+05  3360.0      140.00     0.38330    


end timestep


start timestep kper="141" kstp="1" mode="normal"


 OUTPUT CONTROL FOR STRESS PERIOD 141 IS REPEATED USING SETTINGS FROM A PREVIOUS STRESS PERIOD.


 STRESS PERIOD 141 IS TRANSIENT

 UBDSV1 SAVING     FLOW-JA-FACE ON UNIT   1016 AT TIME STEP      1, STRESS PERIOD    141
 UBDSV06 SAVING              RIV IN MODEL GWF_1            PACKAGE GWF_1           CONNECTED TO MODEL GWF_1            PACKAGE RIV-1            ON UNIT   1016 AT TIME STEP      1, STRESS PERIOD    141
 UBDSV06 SAVING              RCH IN MODEL GWF_1            PACKAGE GWF_1           CONNECTED TO MODEL GWF_1            PACKAGE RCH_MSW          ON UNIT   1016 AT TIME STEP      1, STRESS PERIOD    141

 HEAD WILL BE SAVED ON UNIT 1017 AT END OF TIME STEP    1, STRESS PERIOD  141


  VOLUME BUDGET FOR ENTIRE MODEL AT END OF TIME STEP    1, STRESS PERIOD 141
  ---------------------------------------------------------------------------------------------------

     CUMULATIVE VOLUME      L**3       RATES FOR THIS TIME STEP      L**3/T          PACKAGE NAME    
     ------------------                 ------------------------                     ----------------

           IN:                                      IN:
           ---                                      ---
              STO-SS =        5179.8271                STO-SS =          87.7310     STORAGE                          
                 RIV =           0.0000                   RIV =           0.0000     RIV-1                            
                 RCH =       26038.8487                   RCH =           5.0950     RCH_MSW                          

            TOTAL IN =       31218.6758              TOTAL IN =          92.8260

          OUT:                                     OUT:
          ----                                     ----
              STO-SS =       26684.9616                STO-SS =          16.3759     STORAGE                          
                 RIV =           0.0000                   RIV =           0.0000     RIV-1                            
                 RCH =        4533.7141                   RCH =          76.4501     RCH_MSW                          

           TOTAL OUT =       31218.6758             TOTAL OUT =          92.8260

            IN - OUT =       2.1606E-07              IN - OUT =       1.0722E-09

 PERCENT DISCREPANCY =           0.00     PERCENT DISCREPANCY =           0.00




         TIME SUMMARY AT END OF TIME STEP    1 IN STRESS PERIOD  141
                    SECONDS     MINUTES      HOURS       DAYS        YEARS
                    -----------------------------------------------------------
   TIME STEP LENGTH  86400.      1440.0      24.000      1.0000     2.73785E-03
 STRESS PERIOD TIME  86400.      1440.0      24.000      1.0000     2.73785E-03
         TOTAL TIME 1.21824E+07 2.03040E+05  3384.0      141.00     0.38604    


end timestep


start timestep kper="142" kstp="1" mode="normal"


 OUTPUT CONTROL FOR STRESS PERIOD 142 IS REPEATED USING SETTINGS FROM A PREVIOUS STRESS PERIOD.


 STRESS PERIOD 142 IS TRANSIENT

 UBDSV1 SAVING     FLOW-JA-FACE ON UNIT   1016 AT TIME STEP      1, STRESS PERIOD    142
 UBDSV06 SAVING              RIV IN MODEL GWF_1            PACKAGE GWF_1           CONNECTED TO MODEL GWF_1            PACKAGE RIV-1            ON UNIT   1016 AT TIME STEP      1, STRESS PERIOD    142
 UBDSV06 SAVING              RCH IN MODEL GWF_1            PACKAGE GWF_1           CONNECTED TO MODEL GWF_1            PACKAGE RCH_MSW          ON UNIT   1016 AT TIME STEP      1, STRESS PERIOD    142

 HEAD WILL BE SAVED ON UNIT 1017 AT END OF TIME STEP    1, STRESS PERIOD  142


  VOLUME BUDGET FOR ENTIRE MODEL AT END OF TIME STEP    1, STRESS PERIOD 142
  ---------------------------------------------------------------------------------------------------

     CUMULATIVE VOLUME      L**3       RATES FOR THIS TIME STEP      L**3/T          PACKAGE NAME    
     ------------------                 ------------------------                     ----------------

           IN:                                      IN:
           ---                                      ---
              STO-SS =        5266.2871                STO-SS =          86.4600     STORAGE                          
                 RIV =           0.0000                   RIV =           0.0000     RIV-1                            
                 RCH =       26043.8015                   RCH =           4.9528     RCH_MSW                          

            TOTAL IN =       31310.0886              TOTAL IN =          91.4128

          OUT:                                     OUT:
          ----                                     ----
              STO-SS =       26701.3734                STO-SS =          16.4118     STORAGE                          
                 RIV =           0.0000                   RIV =           0.0000     RIV-1                            
                 RCH =        4608.7152                   RCH =          75.0011     RCH_MSW                          

           TOTAL OUT =       31310.0886             TOTAL OUT =          91.4128

            IN - OUT =       2.1830E-07              IN - OUT =       2.2386E-09

 PERCENT DISCREPANCY =           0.00     PERCENT DISCREPANCY =           0.00




         TIME SUMMARY AT END OF TIME STEP    1 IN STRESS PERIOD  142
                    SECONDS     MINUTES      HOURS       DAYS        YEARS
                    -----------------------------------------------------------
   TIME STEP LENGTH  86400.      1440.0      24.000      1.0000     2.73785E-03
 STRESS PERIOD TIME  86400.      1440.0      24.000      1.0000     2.73785E-03
         TOTAL TIME 1.22688E+07 2.04480E+05  3408.0      142.00     0.38877    


end timestep


start timestep kper="143" kstp="1" mode="normal"


 OUTPUT CONTROL FOR STRESS PERIOD 143 IS REPEATED USING SETTINGS FROM A PREVIOUS STRESS PERIOD.


 STRESS PERIOD 143 IS TRANSIENT

 UBDSV1 SAVING     FLOW-JA-FACE ON UNIT   1016 AT TIME STEP      1, STRESS PERIOD    143
 UBDSV06 SAVING              RIV IN MODEL GWF_1            PACKAGE GWF_1           CONNECTED TO MODEL GWF_1            PACKAGE RIV-1            ON UNIT   1016 AT TIME STEP      1, STRESS PERIOD    143
 UBDSV06 SAVING              RCH IN MODEL GWF_1            PACKAGE GWF_1           CONNECTED TO MODEL GWF_1            PACKAGE RCH_MSW          ON UNIT   1016 AT TIME STEP      1, STRESS PERIOD    143

 HEAD WILL BE SAVED ON UNIT 1017 AT END OF TIME STEP    1, STRESS PERIOD  143


  VOLUME BUDGET FOR ENTIRE MODEL AT END OF TIME STEP    1, STRESS PERIOD 143
  ---------------------------------------------------------------------------------------------------

     CUMULATIVE VOLUME      L**3       RATES FOR THIS TIME STEP      L**3/T          PACKAGE NAME    
     ------------------                 ------------------------                     ----------------

           IN:                                      IN:
           ---                                      ---
              STO-SS =        5334.4870                STO-SS =          68.1999     STORAGE                          
                 RIV =           0.0000                   RIV =           0.0000     RIV-1                            
                 RCH =       26048.5254                   RCH =           4.7239     RCH_MSW                          

            TOTAL IN =       31383.0124              TOTAL IN =          72.9238

          OUT:                                     OUT:
          ----                                     ----
              STO-SS =       26717.7408                STO-SS =          16.3675     STORAGE                          
                 RIV =           0.0000                   RIV =           0.0000     RIV-1                            
                 RCH =        4665.2716                   RCH =          56.5564     RCH_MSW                          

           TOTAL OUT =       31383.0124             TOTAL OUT =          72.9238

            IN - OUT =       2.1702E-07              IN - OUT =      -1.2834E-09

 PERCENT DISCREPANCY =           0.00     PERCENT DISCREPANCY =          -0.00




         TIME SUMMARY AT END OF TIME STEP    1 IN STRESS PERIOD  143
                    SECONDS     MINUTES      HOURS       DAYS        YEARS
                    -----------------------------------------------------------
   TIME STEP LENGTH  86400.      1440.0      24.000      1.0000     2.73785E-03
 STRESS PERIOD TIME  86400.      1440.0      24.000      1.0000     2.73785E-03
         TOTAL TIME 1.23552E+07 2.05920E+05  3432.0      143.00     0.39151    


end timestep


start timestep kper="144" kstp="1" mode="normal"


 OUTPUT CONTROL FOR STRESS PERIOD 144 IS REPEATED USING SETTINGS FROM A PREVIOUS STRESS PERIOD.


 STRESS PERIOD 144 IS TRANSIENT

 UBDSV1 SAVING     FLOW-JA-FACE ON UNIT   1016 AT TIME STEP      1, STRESS PERIOD    144
 UBDSV06 SAVING              RIV IN MODEL GWF_1            PACKAGE GWF_1           CONNECTED TO MODEL GWF_1            PACKAGE RIV-1            ON UNIT   1016 AT TIME STEP      1, STRESS PERIOD    144
 UBDSV06 SAVING              RCH IN MODEL GWF_1            PACKAGE GWF_1           CONNECTED TO MODEL GWF_1            PACKAGE RCH_MSW          ON UNIT   1016 AT TIME STEP      1, STRESS PERIOD    144

 HEAD WILL BE SAVED ON UNIT 1017 AT END OF TIME STEP    1, STRESS PERIOD  144


  VOLUME BUDGET FOR ENTIRE MODEL AT END OF TIME STEP    1, STRESS PERIOD 144
  ---------------------------------------------------------------------------------------------------

     CUMULATIVE VOLUME      L**3       RATES FOR THIS TIME STEP      L**3/T          PACKAGE NAME    
     ------------------                 ------------------------                     ----------------

           IN:                                      IN:
           ---                                      ---
              STO-SS =        5394.5195                STO-SS =          60.0325     STORAGE                          
                 RIV =           0.0000                   RIV =           0.0000     RIV-1                            
                 RCH =       26053.2951                   RCH =           4.7697     RCH_MSW                          

            TOTAL IN =       31447.8146              TOTAL IN =          64.8022

          OUT:                                     OUT:
          ----                                     ----
              STO-SS =       26734.0022                STO-SS =          16.2614     STORAGE                          
                 RIV =           0.0000                   RIV =           0.0000     RIV-1                            
                 RCH =        4713.8124                   RCH =          48.5408     RCH_MSW                          

           TOTAL OUT =       31447.8146             TOTAL OUT =          64.8022

            IN - OUT =       2.1067E-07              IN - OUT =      -6.3509E-09

 PERCENT DISCREPANCY =           0.00     PERCENT DISCREPANCY =          -0.00




         TIME SUMMARY AT END OF TIME STEP    1 IN STRESS PERIOD  144
                    SECONDS     MINUTES      HOURS       DAYS        YEARS
                    -----------------------------------------------------------
   TIME STEP LENGTH  86400.      1440.0      24.000      1.0000     2.73785E-03
 STRESS PERIOD TIME  86400.      1440.0      24.000      1.0000     2.73785E-03
         TOTAL TIME 1.24416E+07 2.07360E+05  3456.0      144.00     0.39425    


end timestep


start timestep kper="145" kstp="1" mode="normal"


 OUTPUT CONTROL FOR STRESS PERIOD 145 IS REPEATED USING SETTINGS FROM A PREVIOUS STRESS PERIOD.


 STRESS PERIOD 145 IS TRANSIENT

 UBDSV1 SAVING     FLOW-JA-FACE ON UNIT   1016 AT TIME STEP      1, STRESS PERIOD    145
 UBDSV06 SAVING              RIV IN MODEL GWF_1            PACKAGE GWF_1           CONNECTED TO MODEL GWF_1            PACKAGE RIV-1            ON UNIT   1016 AT TIME STEP      1, STRESS PERIOD    145
 UBDSV06 SAVING              RCH IN MODEL GWF_1            PACKAGE GWF_1           CONNECTED TO MODEL GWF_1            PACKAGE RCH_MSW          ON UNIT   1016 AT TIME STEP      1, STRESS PERIOD    145

 HEAD WILL BE SAVED ON UNIT 1017 AT END OF TIME STEP    1, STRESS PERIOD  145


  VOLUME BUDGET FOR ENTIRE MODEL AT END OF TIME STEP    1, STRESS PERIOD 145
  ---------------------------------------------------------------------------------------------------

     CUMULATIVE VOLUME      L**3       RATES FOR THIS TIME STEP      L**3/T          PACKAGE NAME    
     ------------------                 ------------------------                     ----------------

           IN:                                      IN:
           ---                                      ---
              STO-SS =        5456.1295                STO-SS =          61.6100     STORAGE                          
                 RIV =           0.0000                   RIV =           0.0000     RIV-1                            
                 RCH =       26055.5110                   RCH =           2.2159     RCH_MSW                          

            TOTAL IN =       31511.6405              TOTAL IN =          63.8259

          OUT:                                     OUT:
          ----                                     ----
              STO-SS =       26750.1393                STO-SS =          16.1371     STORAGE                          
                 RIV =           0.0000                   RIV =           0.0000     RIV-1                            
                 RCH =        4761.5012                   RCH =          47.6888     RCH_MSW                          

           TOTAL OUT =       31511.6405             TOTAL OUT =          63.8259

            IN - OUT =       2.0831E-07              IN - OUT =      -2.3545E-09

 PERCENT DISCREPANCY =           0.00     PERCENT DISCREPANCY =          -0.00




         TIME SUMMARY AT END OF TIME STEP    1 IN STRESS PERIOD  145
                    SECONDS     MINUTES      HOURS       DAYS        YEARS
                    -----------------------------------------------------------
   TIME STEP LENGTH  86400.      1440.0      24.000      1.0000     2.73785E-03
 STRESS PERIOD TIME  86400.      1440.0      24.000      1.0000     2.73785E-03
         TOTAL TIME 1.25280E+07 2.08800E+05  3480.0      145.00     0.39699    


end timestep


start timestep kper="146" kstp="1" mode="normal"


 OUTPUT CONTROL FOR STRESS PERIOD 146 IS REPEATED USING SETTINGS FROM A PREVIOUS STRESS PERIOD.


 STRESS PERIOD 146 IS TRANSIENT

 UBDSV1 SAVING     FLOW-JA-FACE ON UNIT   1016 AT TIME STEP      1, STRESS PERIOD    146
 UBDSV06 SAVING              RIV IN MODEL GWF_1            PACKAGE GWF_1           CONNECTED TO MODEL GWF_1            PACKAGE RIV-1            ON UNIT   1016 AT TIME STEP      1, STRESS PERIOD    146
 UBDSV06 SAVING              RCH IN MODEL GWF_1            PACKAGE GWF_1           CONNECTED TO MODEL GWF_1            PACKAGE RCH_MSW          ON UNIT   1016 AT TIME STEP      1, STRESS PERIOD    146

 HEAD WILL BE SAVED ON UNIT 1017 AT END OF TIME STEP    1, STRESS PERIOD  146


  VOLUME BUDGET FOR ENTIRE MODEL AT END OF TIME STEP    1, STRESS PERIOD 146
  ---------------------------------------------------------------------------------------------------

     CUMULATIVE VOLUME      L**3       RATES FOR THIS TIME STEP      L**3/T          PACKAGE NAME    
     ------------------                 ------------------------                     ----------------

           IN:                                      IN:
           ---                                      ---
              STO-SS =        5525.9945                STO-SS =          69.8650     STORAGE                          
                 RIV =           0.0000                   RIV =           0.0000     RIV-1                            
                 RCH =       26057.6194                   RCH =           2.1084     RCH_MSW                          

            TOTAL IN =       31583.6139              TOTAL IN =          71.9734

          OUT:                                     OUT:
          ----                                     ----
              STO-SS =       26766.1432                STO-SS =          16.0038     STORAGE                          
                 RIV =           0.0000                   RIV =           0.0000     RIV-1                            
                 RCH =        4817.4707                   RCH =          55.9695     RCH_MSW                          

           TOTAL OUT =       31583.6139             TOTAL OUT =          71.9734

            IN - OUT =       2.0533E-07              IN - OUT =      -2.9772E-09

 PERCENT DISCREPANCY =           0.00     PERCENT DISCREPANCY =          -0.00




         TIME SUMMARY AT END OF TIME STEP    1 IN STRESS PERIOD  146
                    SECONDS     MINUTES      HOURS       DAYS        YEARS
                    -----------------------------------------------------------
   TIME STEP LENGTH  86400.      1440.0      24.000      1.0000     2.73785E-03
 STRESS PERIOD TIME  86400.      1440.0      24.000      1.0000     2.73785E-03
         TOTAL TIME 1.26144E+07 2.10240E+05  3504.0      146.00     0.39973    


end timestep


start timestep kper="147" kstp="1" mode="normal"


 OUTPUT CONTROL FOR STRESS PERIOD 147 IS REPEATED USING SETTINGS FROM A PREVIOUS STRESS PERIOD.


 STRESS PERIOD 147 IS TRANSIENT

 UBDSV1 SAVING     FLOW-JA-FACE ON UNIT   1016 AT TIME STEP      1, STRESS PERIOD    147
 UBDSV06 SAVING              RIV IN MODEL GWF_1            PACKAGE GWF_1           CONNECTED TO MODEL GWF_1            PACKAGE RIV-1            ON UNIT   1016 AT TIME STEP      1, STRESS PERIOD    147
 UBDSV06 SAVING              RCH IN MODEL GWF_1            PACKAGE GWF_1           CONNECTED TO MODEL GWF_1            PACKAGE RCH_MSW          ON UNIT   1016 AT TIME STEP      1, STRESS PERIOD    147

 HEAD WILL BE SAVED ON UNIT 1017 AT END OF TIME STEP    1, STRESS PERIOD  147


  VOLUME BUDGET FOR ENTIRE MODEL AT END OF TIME STEP    1, STRESS PERIOD 147
  ---------------------------------------------------------------------------------------------------

     CUMULATIVE VOLUME      L**3       RATES FOR THIS TIME STEP      L**3/T          PACKAGE NAME    
     ------------------                 ------------------------                     ----------------

           IN:                                      IN:
           ---                                      ---
              STO-SS =        5564.3678                STO-SS =          38.3733     STORAGE                          
                 RIV =           0.0000                   RIV =           0.0000     RIV-1                            
                 RCH =       26141.2351                   RCH =          83.6157     RCH_MSW                          

            TOTAL IN =       31705.6029              TOTAL IN =         121.9890

          OUT:                                     OUT:
          ----                                     ----
              STO-SS =       26861.6962                STO-SS =          95.5530     STORAGE                          
                 RIV =           0.0000                   RIV =           0.0000     RIV-1                            
                 RCH =        4843.9067                   RCH =          26.4360     RCH_MSW                          

           TOTAL OUT =       31705.6029             TOTAL OUT =         121.9890

            IN - OUT =       2.1795E-07              IN - OUT =       1.2613E-08

 PERCENT DISCREPANCY =           0.00     PERCENT DISCREPANCY =           0.00




         TIME SUMMARY AT END OF TIME STEP    1 IN STRESS PERIOD  147
                    SECONDS     MINUTES      HOURS       DAYS        YEARS
                    -----------------------------------------------------------
   TIME STEP LENGTH  86400.      1440.0      24.000      1.0000     2.73785E-03
 STRESS PERIOD TIME  86400.      1440.0      24.000      1.0000     2.73785E-03
         TOTAL TIME 1.27008E+07 2.11680E+05  3528.0      147.00     0.40246    


end timestep


start timestep kper="148" kstp="1" mode="normal"


 OUTPUT CONTROL FOR STRESS PERIOD 148 IS REPEATED USING SETTINGS FROM A PREVIOUS STRESS PERIOD.


 STRESS PERIOD 148 IS TRANSIENT

 UBDSV1 SAVING     FLOW-JA-FACE ON UNIT   1016 AT TIME STEP      1, STRESS PERIOD    148
 UBDSV06 SAVING              RIV IN MODEL GWF_1            PACKAGE GWF_1           CONNECTED TO MODEL GWF_1            PACKAGE RIV-1            ON UNIT   1016 AT TIME STEP      1, STRESS PERIOD    148
 UBDSV06 SAVING              RCH IN MODEL GWF_1            PACKAGE GWF_1           CONNECTED TO MODEL GWF_1            PACKAGE RCH_MSW          ON UNIT   1016 AT TIME STEP      1, STRESS PERIOD    148

 HEAD WILL BE SAVED ON UNIT 1017 AT END OF TIME STEP    1, STRESS PERIOD  148


  VOLUME BUDGET FOR ENTIRE MODEL AT END OF TIME STEP    1, STRESS PERIOD 148
  ---------------------------------------------------------------------------------------------------

     CUMULATIVE VOLUME      L**3       RATES FOR THIS TIME STEP      L**3/T          PACKAGE NAME    
     ------------------                 ------------------------                     ----------------

           IN:                                      IN:
           ---                                      ---
              STO-SS =        5592.9658                STO-SS =          28.5980     STORAGE                          
                 RIV =           0.0000                   RIV =           0.0000     RIV-1                            
                 RCH =       26280.5286                   RCH =         139.2935     RCH_MSW                          

            TOTAL IN =       31873.4944              TOTAL IN =         167.8915

          OUT:                                     OUT:
          ----                                     ----
              STO-SS =       27012.3935                STO-SS =         150.6973     STORAGE                          
                 RIV =           0.0000                   RIV =           0.0000     RIV-1                            
                 RCH =        4861.1009                   RCH =          17.1942     RCH_MSW                          

           TOTAL OUT =       31873.4944             TOTAL OUT =         167.8915

            IN - OUT =       2.2152E-07              IN - OUT =       3.5682E-09

 PERCENT DISCREPANCY =           0.00     PERCENT DISCREPANCY =           0.00




         TIME SUMMARY AT END OF TIME STEP    1 IN STRESS PERIOD  148
                    SECONDS     MINUTES      HOURS       DAYS        YEARS
                    -----------------------------------------------------------
   TIME STEP LENGTH  86400.      1440.0      24.000      1.0000     2.73785E-03
 STRESS PERIOD TIME  86400.      1440.0      24.000      1.0000     2.73785E-03
         TOTAL TIME 1.27872E+07 2.13120E+05  3552.0      148.00     0.40520    


end timestep


start timestep kper="149" kstp="1" mode="normal"


 OUTPUT CONTROL FOR STRESS PERIOD 149 IS REPEATED USING SETTINGS FROM A PREVIOUS STRESS PERIOD.


 STRESS PERIOD 149 IS TRANSIENT

 UBDSV1 SAVING     FLOW-JA-FACE ON UNIT   1016 AT TIME STEP      1, STRESS PERIOD    149
 UBDSV06 SAVING              RIV IN MODEL GWF_1            PACKAGE GWF_1           CONNECTED TO MODEL GWF_1            PACKAGE RIV-1            ON UNIT   1016 AT TIME STEP      1, STRESS PERIOD    149
 UBDSV06 SAVING              RCH IN MODEL GWF_1            PACKAGE GWF_1           CONNECTED TO MODEL GWF_1            PACKAGE RCH_MSW          ON UNIT   1016 AT TIME STEP      1, STRESS PERIOD    149

 HEAD WILL BE SAVED ON UNIT 1017 AT END OF TIME STEP    1, STRESS PERIOD  149


  VOLUME BUDGET FOR ENTIRE MODEL AT END OF TIME STEP    1, STRESS PERIOD 149
  ---------------------------------------------------------------------------------------------------

     CUMULATIVE VOLUME      L**3       RATES FOR THIS TIME STEP      L**3/T          PACKAGE NAME    
     ------------------                 ------------------------                     ----------------

           IN:                                      IN:
           ---                                      ---
              STO-SS =        5613.3224                STO-SS =          20.3567     STORAGE                          
                 RIV =           0.0000                   RIV =           0.0000     RIV-1                            
                 RCH =       26322.2882                   RCH =          41.7595     RCH_MSW                          

            TOTAL IN =       31935.6106              TOTAL IN =          62.1162

          OUT:                                     OUT:
          ----                                     ----
              STO-SS =       27062.5857                STO-SS =          50.1921     STORAGE                          
                 RIV =           0.0000                   RIV =           0.0000     RIV-1                            
                 RCH =        4873.0249                   RCH =          11.9240     RCH_MSW                          

           TOTAL OUT =       31935.6106             TOTAL OUT =          62.1162

            IN - OUT =       2.1732E-07              IN - OUT =      -4.1959E-09

 PERCENT DISCREPANCY =           0.00     PERCENT DISCREPANCY =          -0.00




         TIME SUMMARY AT END OF TIME STEP    1 IN STRESS PERIOD  149
                    SECONDS     MINUTES      HOURS       DAYS        YEARS
                    -----------------------------------------------------------
   TIME STEP LENGTH  86400.      1440.0      24.000      1.0000     2.73785E-03
 STRESS PERIOD TIME  86400.      1440.0      24.000      1.0000     2.73785E-03
         TOTAL TIME 1.28736E+07 2.14560E+05  3576.0      149.00     0.40794    


end timestep


start timestep kper="150" kstp="1" mode="normal"


 OUTPUT CONTROL FOR STRESS PERIOD 150 IS REPEATED USING SETTINGS FROM A PREVIOUS STRESS PERIOD.


 STRESS PERIOD 150 IS TRANSIENT

 UBDSV1 SAVING     FLOW-JA-FACE ON UNIT   1016 AT TIME STEP      1, STRESS PERIOD    150
 UBDSV06 SAVING              RIV IN MODEL GWF_1            PACKAGE GWF_1           CONNECTED TO MODEL GWF_1            PACKAGE RIV-1            ON UNIT   1016 AT TIME STEP      1, STRESS PERIOD    150
 UBDSV06 SAVING              RCH IN MODEL GWF_1            PACKAGE GWF_1           CONNECTED TO MODEL GWF_1            PACKAGE RCH_MSW          ON UNIT   1016 AT TIME STEP      1, STRESS PERIOD    150

 HEAD WILL BE SAVED ON UNIT 1017 AT END OF TIME STEP    1, STRESS PERIOD  150


  VOLUME BUDGET FOR ENTIRE MODEL AT END OF TIME STEP    1, STRESS PERIOD 150
  ---------------------------------------------------------------------------------------------------

     CUMULATIVE VOLUME      L**3       RATES FOR THIS TIME STEP      L**3/T          PACKAGE NAME    
     ------------------                 ------------------------                     ----------------

           IN:                                      IN:
           ---                                      ---
              STO-SS =        5648.5102                STO-SS =          35.1878     STORAGE                          
                 RIV =           0.0000                   RIV =           0.0000     RIV-1                            
                 RCH =       26335.7580                   RCH =          13.4699     RCH_MSW                          

            TOTAL IN =       31984.2683              TOTAL IN =          48.6577

          OUT:                                     OUT:
          ----                                     ----
              STO-SS =       27085.8006                STO-SS =          23.2149     STORAGE                          
                 RIV =           0.0000                   RIV =           0.0000     RIV-1                            
                 RCH =        4898.4677                   RCH =          25.4428     RCH_MSW                          

           TOTAL OUT =       31984.2683             TOTAL OUT =          48.6577

            IN - OUT =       1.9858E-07              IN - OUT =      -1.8741E-08

 PERCENT DISCREPANCY =           0.00     PERCENT DISCREPANCY =          -0.00




         TIME SUMMARY AT END OF TIME STEP    1 IN STRESS PERIOD  150
                    SECONDS     MINUTES      HOURS       DAYS        YEARS
                    -----------------------------------------------------------
   TIME STEP LENGTH  86400.      1440.0      24.000      1.0000     2.73785E-03
 STRESS PERIOD TIME  86400.      1440.0      24.000      1.0000     2.73785E-03
         TOTAL TIME 1.29600E+07 2.16000E+05  3600.0      150.00     0.41068    


end timestep


start timestep kper="151" kstp="1" mode="normal"


 OUTPUT CONTROL FOR STRESS PERIOD 151 IS REPEATED USING SETTINGS FROM A PREVIOUS STRESS PERIOD.


 STRESS PERIOD 151 IS TRANSIENT

 UBDSV1 SAVING     FLOW-JA-FACE ON UNIT   1016 AT TIME STEP      1, STRESS PERIOD    151
 UBDSV06 SAVING              RIV IN MODEL GWF_1            PACKAGE GWF_1           CONNECTED TO MODEL GWF_1            PACKAGE RIV-1            ON UNIT   1016 AT TIME STEP      1, STRESS PERIOD    151
 UBDSV06 SAVING              RCH IN MODEL GWF_1            PACKAGE GWF_1           CONNECTED TO MODEL GWF_1            PACKAGE RCH_MSW          ON UNIT   1016 AT TIME STEP      1, STRESS PERIOD    151

 HEAD WILL BE SAVED ON UNIT 1017 AT END OF TIME STEP    1, STRESS PERIOD  151


  VOLUME BUDGET FOR ENTIRE MODEL AT END OF TIME STEP    1, STRESS PERIOD 151
  ---------------------------------------------------------------------------------------------------

     CUMULATIVE VOLUME      L**3       RATES FOR THIS TIME STEP      L**3/T          PACKAGE NAME    
     ------------------                 ------------------------                     ----------------

           IN:                                      IN:
           ---                                      ---
              STO-SS =        5696.8060                STO-SS =          48.2957     STORAGE                          
                 RIV =           0.0000                   RIV =           0.0000     RIV-1                            
                 RCH =       26342.8477                   RCH =           7.0897     RCH_MSW                          

            TOTAL IN =       32039.6537              TOTAL IN =          55.3854

          OUT:                                     OUT:
          ----                                     ----
              STO-SS =       27103.2337                STO-SS =          17.4330     STORAGE                          
                 RIV =           0.0000                   RIV =           0.0000     RIV-1                            
                 RCH =        4936.4200                   RCH =          37.9523     RCH_MSW                          

           TOTAL OUT =       32039.6537             TOTAL OUT =          55.3854

            IN - OUT =       2.0409E-07              IN - OUT =       5.5051E-09

 PERCENT DISCREPANCY =           0.00     PERCENT DISCREPANCY =           0.00




         TIME SUMMARY AT END OF TIME STEP    1 IN STRESS PERIOD  151
                    SECONDS     MINUTES      HOURS       DAYS        YEARS
                    -----------------------------------------------------------
   TIME STEP LENGTH  86400.      1440.0      24.000      1.0000     2.73785E-03
 STRESS PERIOD TIME  86400.      1440.0      24.000      1.0000     2.73785E-03
         TOTAL TIME 1.30464E+07 2.17440E+05  3624.0      151.00     0.41342    


end timestep


start timestep kper="152" kstp="1" mode="normal"


 OUTPUT CONTROL FOR STRESS PERIOD 152 IS REPEATED USING SETTINGS FROM A PREVIOUS STRESS PERIOD.


 STRESS PERIOD 152 IS TRANSIENT

 UBDSV1 SAVING     FLOW-JA-FACE ON UNIT   1016 AT TIME STEP      1, STRESS PERIOD    152
 UBDSV06 SAVING              RIV IN MODEL GWF_1            PACKAGE GWF_1           CONNECTED TO MODEL GWF_1            PACKAGE RIV-1            ON UNIT   1016 AT TIME STEP      1, STRESS PERIOD    152
 UBDSV06 SAVING              RCH IN MODEL GWF_1            PACKAGE GWF_1           CONNECTED TO MODEL GWF_1            PACKAGE RCH_MSW          ON UNIT   1016 AT TIME STEP      1, STRESS PERIOD    152

 HEAD WILL BE SAVED ON UNIT 1017 AT END OF TIME STEP    1, STRESS PERIOD  152


  VOLUME BUDGET FOR ENTIRE MODEL AT END OF TIME STEP    1, STRESS PERIOD 152
  ---------------------------------------------------------------------------------------------------

     CUMULATIVE VOLUME      L**3       RATES FOR THIS TIME STEP      L**3/T          PACKAGE NAME    
     ------------------                 ------------------------                     ----------------

           IN:                                      IN:
           ---                                      ---
              STO-SS =        5764.4002                STO-SS =          67.5942     STORAGE                          
                 RIV =           0.0000                   RIV =           0.0000     RIV-1                            
                 RCH =       26345.7109                   RCH =           2.8632     RCH_MSW                          

            TOTAL IN =       32110.1111              TOTAL IN =          70.4575

          OUT:                                     OUT:
          ----                                     ----
              STO-SS =       27119.0289                STO-SS =          15.7953     STORAGE                          
                 RIV =           0.0000                   RIV =           0.0000     RIV-1                            
                 RCH =        4991.0822                   RCH =          54.6622     RCH_MSW                          

           TOTAL OUT =       32110.1111             TOTAL OUT =          70.4575

            IN - OUT =       2.0499E-07              IN - OUT =       9.0185E-10

 PERCENT DISCREPANCY =           0.00     PERCENT DISCREPANCY =           0.00




         TIME SUMMARY AT END OF TIME STEP    1 IN STRESS PERIOD  152
                    SECONDS     MINUTES      HOURS       DAYS        YEARS
                    -----------------------------------------------------------
   TIME STEP LENGTH  86400.      1440.0      24.000      1.0000     2.73785E-03
 STRESS PERIOD TIME  86400.      1440.0      24.000      1.0000     2.73785E-03
         TOTAL TIME 1.31328E+07 2.18880E+05  3648.0      152.00     0.41615    


end timestep


start timestep kper="153" kstp="1" mode="normal"


 OUTPUT CONTROL FOR STRESS PERIOD 153 IS REPEATED USING SETTINGS FROM A PREVIOUS STRESS PERIOD.


 STRESS PERIOD 153 IS TRANSIENT

 UBDSV1 SAVING     FLOW-JA-FACE ON UNIT   1016 AT TIME STEP      1, STRESS PERIOD    153
 UBDSV06 SAVING              RIV IN MODEL GWF_1            PACKAGE GWF_1           CONNECTED TO MODEL GWF_1            PACKAGE RIV-1            ON UNIT   1016 AT TIME STEP      1, STRESS PERIOD    153
 UBDSV06 SAVING              RCH IN MODEL GWF_1            PACKAGE GWF_1           CONNECTED TO MODEL GWF_1            PACKAGE RCH_MSW          ON UNIT   1016 AT TIME STEP      1, STRESS PERIOD    153

 HEAD WILL BE SAVED ON UNIT 1017 AT END OF TIME STEP    1, STRESS PERIOD  153


  VOLUME BUDGET FOR ENTIRE MODEL AT END OF TIME STEP    1, STRESS PERIOD 153
  ---------------------------------------------------------------------------------------------------

     CUMULATIVE VOLUME      L**3       RATES FOR THIS TIME STEP      L**3/T          PACKAGE NAME    
     ------------------                 ------------------------                     ----------------

           IN:                                      IN:
           ---                                      ---
              STO-SS =        5842.7172                STO-SS =          78.3170     STORAGE                          
                 RIV =           0.0000                   RIV =           0.0000     RIV-1                            
                 RCH =       26346.4118                   RCH =           0.7009     RCH_MSW                          

            TOTAL IN =       32189.1290              TOTAL IN =          79.0179

          OUT:                                     OUT:
          ----                                     ----
              STO-SS =       27134.3402                STO-SS =          15.3112     STORAGE                          
                 RIV =           0.0000                   RIV =           0.0000     RIV-1                            
                 RCH =        5054.7888                   RCH =          63.7066     RCH_MSW                          

           TOTAL OUT =       32189.1290             TOTAL OUT =          79.0179

            IN - OUT =       2.0166E-07              IN - OUT =      -3.3257E-09

 PERCENT DISCREPANCY =           0.00     PERCENT DISCREPANCY =          -0.00




         TIME SUMMARY AT END OF TIME STEP    1 IN STRESS PERIOD  153
                    SECONDS     MINUTES      HOURS       DAYS        YEARS
                    -----------------------------------------------------------
   TIME STEP LENGTH  86400.      1440.0      24.000      1.0000     2.73785E-03
 STRESS PERIOD TIME  86400.      1440.0      24.000      1.0000     2.73785E-03
         TOTAL TIME 1.32192E+07 2.20320E+05  3672.0      153.00     0.41889    


end timestep


start timestep kper="154" kstp="1" mode="normal"


 OUTPUT CONTROL FOR STRESS PERIOD 154 IS REPEATED USING SETTINGS FROM A PREVIOUS STRESS PERIOD.


 STRESS PERIOD 154 IS TRANSIENT

 UBDSV1 SAVING     FLOW-JA-FACE ON UNIT   1016 AT TIME STEP      1, STRESS PERIOD    154
 UBDSV06 SAVING              RIV IN MODEL GWF_1            PACKAGE GWF_1           CONNECTED TO MODEL GWF_1            PACKAGE RIV-1            ON UNIT   1016 AT TIME STEP      1, STRESS PERIOD    154
 UBDSV06 SAVING              RCH IN MODEL GWF_1            PACKAGE GWF_1           CONNECTED TO MODEL GWF_1            PACKAGE RCH_MSW          ON UNIT   1016 AT TIME STEP      1, STRESS PERIOD    154

 HEAD WILL BE SAVED ON UNIT 1017 AT END OF TIME STEP    1, STRESS PERIOD  154


  VOLUME BUDGET FOR ENTIRE MODEL AT END OF TIME STEP    1, STRESS PERIOD 154
  ---------------------------------------------------------------------------------------------------

     CUMULATIVE VOLUME      L**3       RATES FOR THIS TIME STEP      L**3/T          PACKAGE NAME    
     ------------------                 ------------------------                     ----------------

           IN:                                      IN:
           ---                                      ---
              STO-SS =        5931.7728                STO-SS =          89.0556     STORAGE                          
                 RIV =           0.0000                   RIV =           0.0000     RIV-1                            
                 RCH =       26346.7360                   RCH =           0.3242     RCH_MSW                          

            TOTAL IN =       32278.5088              TOTAL IN =          89.3798

          OUT:                                     OUT:
          ----                                     ----
              STO-SS =       27149.5894                STO-SS =          15.2492     STORAGE                          
                 RIV =           0.0000                   RIV =           0.0000     RIV-1                            
                 RCH =        5128.9194                   RCH =          74.1306     RCH_MSW                          

           TOTAL OUT =       32278.5088             TOTAL OUT =          89.3798

            IN - OUT =       2.0164E-07              IN - OUT =      -2.1387E-11

 PERCENT DISCREPANCY =           0.00     PERCENT DISCREPANCY =          -0.00




         TIME SUMMARY AT END OF TIME STEP    1 IN STRESS PERIOD  154
                    SECONDS     MINUTES      HOURS       DAYS        YEARS
                    -----------------------------------------------------------
   TIME STEP LENGTH  86400.      1440.0      24.000      1.0000     2.73785E-03
 STRESS PERIOD TIME  86400.      1440.0      24.000      1.0000     2.73785E-03
         TOTAL TIME 1.33056E+07 2.21760E+05  3696.0      154.00     0.42163    


end timestep


start timestep kper="155" kstp="1" mode="normal"


 OUTPUT CONTROL FOR STRESS PERIOD 155 IS REPEATED USING SETTINGS FROM A PREVIOUS STRESS PERIOD.


 STRESS PERIOD 155 IS TRANSIENT

 UBDSV1 SAVING     FLOW-JA-FACE ON UNIT   1016 AT TIME STEP      1, STRESS PERIOD    155
 UBDSV06 SAVING              RIV IN MODEL GWF_1            PACKAGE GWF_1           CONNECTED TO MODEL GWF_1            PACKAGE RIV-1            ON UNIT   1016 AT TIME STEP      1, STRESS PERIOD    155
 UBDSV06 SAVING              RCH IN MODEL GWF_1            PACKAGE GWF_1           CONNECTED TO MODEL GWF_1            PACKAGE RCH_MSW          ON UNIT   1016 AT TIME STEP      1, STRESS PERIOD    155

 HEAD WILL BE SAVED ON UNIT 1017 AT END OF TIME STEP    1, STRESS PERIOD  155


  VOLUME BUDGET FOR ENTIRE MODEL AT END OF TIME STEP    1, STRESS PERIOD 155
  ---------------------------------------------------------------------------------------------------

     CUMULATIVE VOLUME      L**3       RATES FOR THIS TIME STEP      L**3/T          PACKAGE NAME    
     ------------------                 ------------------------                     ----------------

           IN:                                      IN:
           ---                                      ---
              STO-SS =        6031.0119                STO-SS =          99.2391     STORAGE                          
                 RIV =           0.0000                   RIV =           0.0000     RIV-1                            
                 RCH =       26347.0523                   RCH =           0.3163     RCH_MSW                          

            TOTAL IN =       32378.0642              TOTAL IN =          99.5554

          OUT:                                     OUT:
          ----                                     ----
              STO-SS =       27164.7772                STO-SS =          15.1878     STORAGE                          
                 RIV =           0.0000                   RIV =           0.0000     RIV-1                            
                 RCH =        5213.2870                   RCH =          84.3676     RCH_MSW                          

           TOTAL OUT =       32378.0642             TOTAL OUT =          99.5554

            IN - OUT =       2.0181E-07              IN - OUT =       1.6875E-10

 PERCENT DISCREPANCY =           0.00     PERCENT DISCREPANCY =           0.00




         TIME SUMMARY AT END OF TIME STEP    1 IN STRESS PERIOD  155
                    SECONDS     MINUTES      HOURS       DAYS        YEARS
                    -----------------------------------------------------------
   TIME STEP LENGTH  86400.      1440.0      24.000      1.0000     2.73785E-03
 STRESS PERIOD TIME  86400.      1440.0      24.000      1.0000     2.73785E-03
         TOTAL TIME 1.33920E+07 2.23200E+05  3720.0      155.00     0.42437    


end timestep


start timestep kper="156" kstp="1" mode="normal"


 OUTPUT CONTROL FOR STRESS PERIOD 156 IS REPEATED USING SETTINGS FROM A PREVIOUS STRESS PERIOD.


 STRESS PERIOD 156 IS TRANSIENT

 UBDSV1 SAVING     FLOW-JA-FACE ON UNIT   1016 AT TIME STEP      1, STRESS PERIOD    156
 UBDSV06 SAVING              RIV IN MODEL GWF_1            PACKAGE GWF_1           CONNECTED TO MODEL GWF_1            PACKAGE RIV-1            ON UNIT   1016 AT TIME STEP      1, STRESS PERIOD    156
 UBDSV06 SAVING              RCH IN MODEL GWF_1            PACKAGE GWF_1           CONNECTED TO MODEL GWF_1            PACKAGE RCH_MSW          ON UNIT   1016 AT TIME STEP      1, STRESS PERIOD    156

 HEAD WILL BE SAVED ON UNIT 1017 AT END OF TIME STEP    1, STRESS PERIOD  156


  VOLUME BUDGET FOR ENTIRE MODEL AT END OF TIME STEP    1, STRESS PERIOD 156
  ---------------------------------------------------------------------------------------------------

     CUMULATIVE VOLUME      L**3       RATES FOR THIS TIME STEP      L**3/T          PACKAGE NAME    
     ------------------                 ------------------------                     ----------------

           IN:                                      IN:
           ---                                      ---
              STO-SS =        6138.0545                STO-SS =         107.0426     STORAGE                          
                 RIV =           0.0000                   RIV =           0.0000     RIV-1                            
                 RCH =       26347.3616                   RCH =           0.3093     RCH_MSW                          

            TOTAL IN =       32485.4161              TOTAL IN =         107.3519

          OUT:                                     OUT:
          ----                                     ----
              STO-SS =       27179.9034                STO-SS =          15.1262     STORAGE                          
                 RIV =           0.0000                   RIV =           0.0000     RIV-1                            
                 RCH =        5305.5128                   RCH =          92.2257     RCH_MSW                          

           TOTAL OUT =       32485.4161             TOTAL OUT =         107.3519

            IN - OUT =       1.9682E-07              IN - OUT =      -4.9942E-09

 PERCENT DISCREPANCY =           0.00     PERCENT DISCREPANCY =          -0.00




         TIME SUMMARY AT END OF TIME STEP    1 IN STRESS PERIOD  156
                    SECONDS     MINUTES      HOURS       DAYS        YEARS
                    -----------------------------------------------------------
   TIME STEP LENGTH  86400.      1440.0      24.000      1.0000     2.73785E-03
 STRESS PERIOD TIME  86400.      1440.0      24.000      1.0000     2.73785E-03
         TOTAL TIME 1.34784E+07 2.24640E+05  3744.0      156.00     0.42710    


end timestep


start timestep kper="157" kstp="1" mode="normal"


 OUTPUT CONTROL FOR STRESS PERIOD 157 IS REPEATED USING SETTINGS FROM A PREVIOUS STRESS PERIOD.


 STRESS PERIOD 157 IS TRANSIENT

 UBDSV1 SAVING     FLOW-JA-FACE ON UNIT   1016 AT TIME STEP      1, STRESS PERIOD    157
 UBDSV06 SAVING              RIV IN MODEL GWF_1            PACKAGE GWF_1           CONNECTED TO MODEL GWF_1            PACKAGE RIV-1            ON UNIT   1016 AT TIME STEP      1, STRESS PERIOD    157
 UBDSV06 SAVING              RCH IN MODEL GWF_1            PACKAGE GWF_1           CONNECTED TO MODEL GWF_1            PACKAGE RCH_MSW          ON UNIT   1016 AT TIME STEP      1, STRESS PERIOD    157

 HEAD WILL BE SAVED ON UNIT 1017 AT END OF TIME STEP    1, STRESS PERIOD  157


  VOLUME BUDGET FOR ENTIRE MODEL AT END OF TIME STEP    1, STRESS PERIOD 157
  ---------------------------------------------------------------------------------------------------

     CUMULATIVE VOLUME      L**3       RATES FOR THIS TIME STEP      L**3/T          PACKAGE NAME    
     ------------------                 ------------------------                     ----------------

           IN:                                      IN:
           ---                                      ---
              STO-SS =        6247.2743                STO-SS =         109.2198     STORAGE                          
                 RIV =           0.0000                   RIV =           0.0000     RIV-1                            
                 RCH =       26347.6654                   RCH =           0.3037     RCH_MSW                          

            TOTAL IN =       32594.9397              TOTAL IN =         109.5236

          OUT:                                     OUT:
          ----                                     ----
              STO-SS =       27194.9815                STO-SS =          15.0781     STORAGE                          
                 RIV =           0.0000                   RIV =           0.0000     RIV-1                            
                 RCH =        5399.9582                   RCH =          94.4454     RCH_MSW                          

           TOTAL OUT =       32594.9397             TOTAL OUT =         109.5236

            IN - OUT =       1.9643E-07              IN - OUT =      -3.8514E-10

 PERCENT DISCREPANCY =           0.00     PERCENT DISCREPANCY =          -0.00




         TIME SUMMARY AT END OF TIME STEP    1 IN STRESS PERIOD  157
                    SECONDS     MINUTES      HOURS       DAYS        YEARS
                    -----------------------------------------------------------
   TIME STEP LENGTH  86400.      1440.0      24.000      1.0000     2.73785E-03
 STRESS PERIOD TIME  86400.      1440.0      24.000      1.0000     2.73785E-03
         TOTAL TIME 1.35648E+07 2.26080E+05  3768.0      157.00     0.42984    


end timestep


start timestep kper="158" kstp="1" mode="normal"


 OUTPUT CONTROL FOR STRESS PERIOD 158 IS REPEATED USING SETTINGS FROM A PREVIOUS STRESS PERIOD.


 STRESS PERIOD 158 IS TRANSIENT

 UBDSV1 SAVING     FLOW-JA-FACE ON UNIT   1016 AT TIME STEP      1, STRESS PERIOD    158
 UBDSV06 SAVING              RIV IN MODEL GWF_1            PACKAGE GWF_1           CONNECTED TO MODEL GWF_1            PACKAGE RIV-1            ON UNIT   1016 AT TIME STEP      1, STRESS PERIOD    158
 UBDSV06 SAVING              RCH IN MODEL GWF_1            PACKAGE GWF_1           CONNECTED TO MODEL GWF_1            PACKAGE RCH_MSW          ON UNIT   1016 AT TIME STEP      1, STRESS PERIOD    158

 HEAD WILL BE SAVED ON UNIT 1017 AT END OF TIME STEP    1, STRESS PERIOD  158


  VOLUME BUDGET FOR ENTIRE MODEL AT END OF TIME STEP    1, STRESS PERIOD 158
  ---------------------------------------------------------------------------------------------------

     CUMULATIVE VOLUME      L**3       RATES FOR THIS TIME STEP      L**3/T          PACKAGE NAME    
     ------------------                 ------------------------                     ----------------

           IN:                                      IN:
           ---                                      ---
              STO-SS =        6356.2798                STO-SS =         109.0055     STORAGE                          
                 RIV =           0.0000                   RIV =           0.0000     RIV-1                            
                 RCH =       26347.9642                   RCH =           0.2989     RCH_MSW                          

            TOTAL IN =       32704.2440              TOTAL IN =         109.3043

          OUT:                                     OUT:
          ----                                     ----
              STO-SS =       27210.0117                STO-SS =          15.0302     STORAGE                          
                 RIV =           0.0000                   RIV =           0.0000     RIV-1                            
                 RCH =        5494.2323                   RCH =          94.2741     RCH_MSW                          

           TOTAL OUT =       32704.2440             TOTAL OUT =         109.3043

            IN - OUT =       1.9959E-07              IN - OUT =       3.1608E-09

 PERCENT DISCREPANCY =           0.00     PERCENT DISCREPANCY =           0.00




         TIME SUMMARY AT END OF TIME STEP    1 IN STRESS PERIOD  158
                    SECONDS     MINUTES      HOURS       DAYS        YEARS
                    -----------------------------------------------------------
   TIME STEP LENGTH  86400.      1440.0      24.000      1.0000     2.73785E-03
 STRESS PERIOD TIME  86400.      1440.0      24.000      1.0000     2.73785E-03
         TOTAL TIME 1.36512E+07 2.27520E+05  3792.0      158.00     0.43258    


end timestep


start timestep kper="159" kstp="1" mode="normal"


 OUTPUT CONTROL FOR STRESS PERIOD 159 IS REPEATED USING SETTINGS FROM A PREVIOUS STRESS PERIOD.


 STRESS PERIOD 159 IS TRANSIENT

 UBDSV1 SAVING     FLOW-JA-FACE ON UNIT   1016 AT TIME STEP      1, STRESS PERIOD    159
 UBDSV06 SAVING              RIV IN MODEL GWF_1            PACKAGE GWF_1           CONNECTED TO MODEL GWF_1            PACKAGE RIV-1            ON UNIT   1016 AT TIME STEP      1, STRESS PERIOD    159
 UBDSV06 SAVING              RCH IN MODEL GWF_1            PACKAGE GWF_1           CONNECTED TO MODEL GWF_1            PACKAGE RCH_MSW          ON UNIT   1016 AT TIME STEP      1, STRESS PERIOD    159

 HEAD WILL BE SAVED ON UNIT 1017 AT END OF TIME STEP    1, STRESS PERIOD  159


  VOLUME BUDGET FOR ENTIRE MODEL AT END OF TIME STEP    1, STRESS PERIOD 159
  ---------------------------------------------------------------------------------------------------

     CUMULATIVE VOLUME      L**3       RATES FOR THIS TIME STEP      L**3/T          PACKAGE NAME    
     ------------------                 ------------------------                     ----------------

           IN:                                      IN:
           ---                                      ---
              STO-SS =        6467.0126                STO-SS =         110.7328     STORAGE                          
                 RIV =           0.0000                   RIV =           0.0000     RIV-1                            
                 RCH =       26348.2535                   RCH =           0.2893     RCH_MSW                          

            TOTAL IN =       32815.2661              TOTAL IN =         111.0221

          OUT:                                     OUT:
          ----                                     ----
              STO-SS =       27224.9931                STO-SS =          14.9815     STORAGE                          
                 RIV =           0.0000                   RIV =           0.0000     RIV-1                            
                 RCH =        5590.2730                   RCH =          96.0407     RCH_MSW                          

           TOTAL OUT =       32815.2661             TOTAL OUT =         111.0221

            IN - OUT =       1.9488E-07              IN - OUT =      -4.7087E-09

 PERCENT DISCREPANCY =           0.00     PERCENT DISCREPANCY =          -0.00




         TIME SUMMARY AT END OF TIME STEP    1 IN STRESS PERIOD  159
                    SECONDS     MINUTES      HOURS       DAYS        YEARS
                    -----------------------------------------------------------
   TIME STEP LENGTH  86400.      1440.0      24.000      1.0000     2.73785E-03
 STRESS PERIOD TIME  86400.      1440.0      24.000      1.0000     2.73785E-03
         TOTAL TIME 1.37376E+07 2.28960E+05  3816.0      159.00     0.43532    


end timestep


start timestep kper="160" kstp="1" mode="normal"


 OUTPUT CONTROL FOR STRESS PERIOD 160 IS REPEATED USING SETTINGS FROM A PREVIOUS STRESS PERIOD.


 STRESS PERIOD 160 IS TRANSIENT

 UBDSV1 SAVING     FLOW-JA-FACE ON UNIT   1016 AT TIME STEP      1, STRESS PERIOD    160
 UBDSV06 SAVING              RIV IN MODEL GWF_1            PACKAGE GWF_1           CONNECTED TO MODEL GWF_1            PACKAGE RIV-1            ON UNIT   1016 AT TIME STEP      1, STRESS PERIOD    160
 UBDSV06 SAVING              RCH IN MODEL GWF_1            PACKAGE GWF_1           CONNECTED TO MODEL GWF_1            PACKAGE RCH_MSW          ON UNIT   1016 AT TIME STEP      1, STRESS PERIOD    160

 HEAD WILL BE SAVED ON UNIT 1017 AT END OF TIME STEP    1, STRESS PERIOD  160


  VOLUME BUDGET FOR ENTIRE MODEL AT END OF TIME STEP    1, STRESS PERIOD 160
  ---------------------------------------------------------------------------------------------------

     CUMULATIVE VOLUME      L**3       RATES FOR THIS TIME STEP      L**3/T          PACKAGE NAME    
     ------------------                 ------------------------                     ----------------

           IN:                                      IN:
           ---                                      ---
              STO-SS =        6577.9195                STO-SS =         110.9069     STORAGE                          
                 RIV =           0.0000                   RIV =           0.0000     RIV-1                            
                 RCH =       26348.5331                   RCH =           0.2796     RCH_MSW                          

            TOTAL IN =       32926.4526              TOTAL IN =         111.1865

          OUT:                                     OUT:
          ----                                     ----
              STO-SS =       27239.9251                STO-SS =          14.9319     STORAGE                          
                 RIV =           0.0000                   RIV =           0.0000     RIV-1                            
                 RCH =        5686.5275                   RCH =          96.2546     RCH_MSW                          

           TOTAL OUT =       32926.4526             TOTAL OUT =         111.1865

            IN - OUT =       1.9773E-07              IN - OUT =       2.8411E-09

 PERCENT DISCREPANCY =           0.00     PERCENT DISCREPANCY =           0.00




         TIME SUMMARY AT END OF TIME STEP    1 IN STRESS PERIOD  160
                    SECONDS     MINUTES      HOURS       DAYS        YEARS
                    -----------------------------------------------------------
   TIME STEP LENGTH  86400.      1440.0      24.000      1.0000     2.73785E-03
 STRESS PERIOD TIME  86400.      1440.0      24.000      1.0000     2.73785E-03
         TOTAL TIME 1.38240E+07 2.30400E+05  3840.0      160.00     0.43806    


end timestep


start timestep kper="161" kstp="1" mode="normal"


 OUTPUT CONTROL FOR STRESS PERIOD 161 IS REPEATED USING SETTINGS FROM A PREVIOUS STRESS PERIOD.


 STRESS PERIOD 161 IS TRANSIENT

 UBDSV1 SAVING     FLOW-JA-FACE ON UNIT   1016 AT TIME STEP      1, STRESS PERIOD    161
 UBDSV06 SAVING              RIV IN MODEL GWF_1            PACKAGE GWF_1           CONNECTED TO MODEL GWF_1            PACKAGE RIV-1            ON UNIT   1016 AT TIME STEP      1, STRESS PERIOD    161
 UBDSV06 SAVING              RCH IN MODEL GWF_1            PACKAGE GWF_1           CONNECTED TO MODEL GWF_1            PACKAGE RCH_MSW          ON UNIT   1016 AT TIME STEP      1, STRESS PERIOD    161

 HEAD WILL BE SAVED ON UNIT 1017 AT END OF TIME STEP    1, STRESS PERIOD  161


  VOLUME BUDGET FOR ENTIRE MODEL AT END OF TIME STEP    1, STRESS PERIOD 161
  ---------------------------------------------------------------------------------------------------

     CUMULATIVE VOLUME      L**3       RATES FOR THIS TIME STEP      L**3/T          PACKAGE NAME    
     ------------------                 ------------------------                     ----------------

           IN:                                      IN:
           ---                                      ---
              STO-SS =        6678.9574                STO-SS =         101.0379     STORAGE                          
                 RIV =           0.0000                   RIV =           0.0000     RIV-1                            
                 RCH =       26350.6773                   RCH =           2.1442     RCH_MSW                          

            TOTAL IN =       33029.6348              TOTAL IN =         103.1822

          OUT:                                     OUT:
          ----                                     ----
              STO-SS =       27255.3027                STO-SS =          15.3776     STORAGE                          
                 RIV =           0.0000                   RIV =           0.0000     RIV-1                            
                 RCH =        5774.3320                   RCH =          87.8045     RCH_MSW                          

           TOTAL OUT =       33029.6348             TOTAL OUT =         103.1822

            IN - OUT =       2.0547E-07              IN - OUT =       7.7464E-09

 PERCENT DISCREPANCY =           0.00     PERCENT DISCREPANCY =           0.00




         TIME SUMMARY AT END OF TIME STEP    1 IN STRESS PERIOD  161
                    SECONDS     MINUTES      HOURS       DAYS        YEARS
                    -----------------------------------------------------------
   TIME STEP LENGTH  86400.      1440.0      24.000      1.0000     2.73785E-03
 STRESS PERIOD TIME  86400.      1440.0      24.000      1.0000     2.73785E-03
         TOTAL TIME 1.39104E+07 2.31840E+05  3864.0      161.00     0.44079    


end timestep


start timestep kper="162" kstp="1" mode="normal"


 OUTPUT CONTROL FOR STRESS PERIOD 162 IS REPEATED USING SETTINGS FROM A PREVIOUS STRESS PERIOD.


 STRESS PERIOD 162 IS TRANSIENT

 UBDSV1 SAVING     FLOW-JA-FACE ON UNIT   1016 AT TIME STEP      1, STRESS PERIOD    162
 UBDSV06 SAVING              RIV IN MODEL GWF_1            PACKAGE GWF_1           CONNECTED TO MODEL GWF_1            PACKAGE RIV-1            ON UNIT   1016 AT TIME STEP      1, STRESS PERIOD    162
 UBDSV06 SAVING              RCH IN MODEL GWF_1            PACKAGE GWF_1           CONNECTED TO MODEL GWF_1            PACKAGE RCH_MSW          ON UNIT   1016 AT TIME STEP      1, STRESS PERIOD    162

 HEAD WILL BE SAVED ON UNIT 1017 AT END OF TIME STEP    1, STRESS PERIOD  162


  VOLUME BUDGET FOR ENTIRE MODEL AT END OF TIME STEP    1, STRESS PERIOD 162
  ---------------------------------------------------------------------------------------------------

     CUMULATIVE VOLUME      L**3       RATES FOR THIS TIME STEP      L**3/T          PACKAGE NAME    
     ------------------                 ------------------------                     ----------------

           IN:                                      IN:
           ---                                      ---
              STO-SS =        6784.0820                STO-SS =         105.1245     STORAGE                          
                 RIV =           0.0000                   RIV =           0.0000     RIV-1                            
                 RCH =       26350.9110                   RCH =           0.2337     RCH_MSW                          

            TOTAL IN =       33134.9929              TOTAL IN =         105.3582

          OUT:                                     OUT:
          ----                                     ----
              STO-SS =       27270.1366                STO-SS =          14.8338     STORAGE                          
                 RIV =           0.0000                   RIV =           0.0000     RIV-1                            
                 RCH =        5864.8564                   RCH =          90.5243     RCH_MSW                          

           TOTAL OUT =       33134.9929             TOTAL OUT =         105.3582

            IN - OUT =       2.1560E-07              IN - OUT =       1.0124E-08

 PERCENT DISCREPANCY =           0.00     PERCENT DISCREPANCY =           0.00




         TIME SUMMARY AT END OF TIME STEP    1 IN STRESS PERIOD  162
                    SECONDS     MINUTES      HOURS       DAYS        YEARS
                    -----------------------------------------------------------
   TIME STEP LENGTH  86400.      1440.0      24.000      1.0000     2.73785E-03
 STRESS PERIOD TIME  86400.      1440.0      24.000      1.0000     2.73785E-03
         TOTAL TIME 1.39968E+07 2.33280E+05  3888.0      162.00     0.44353    


end timestep


start timestep kper="163" kstp="1" mode="normal"


 OUTPUT CONTROL FOR STRESS PERIOD 163 IS REPEATED USING SETTINGS FROM A PREVIOUS STRESS PERIOD.


 STRESS PERIOD 163 IS TRANSIENT

 UBDSV1 SAVING     FLOW-JA-FACE ON UNIT   1016 AT TIME STEP      1, STRESS PERIOD    163
 UBDSV06 SAVING              RIV IN MODEL GWF_1            PACKAGE GWF_1           CONNECTED TO MODEL GWF_1            PACKAGE RIV-1            ON UNIT   1016 AT TIME STEP      1, STRESS PERIOD    163
 UBDSV06 SAVING              RCH IN MODEL GWF_1            PACKAGE GWF_1           CONNECTED TO MODEL GWF_1            PACKAGE RCH_MSW          ON UNIT   1016 AT TIME STEP      1, STRESS PERIOD    163

 HEAD WILL BE SAVED ON UNIT 1017 AT END OF TIME STEP    1, STRESS PERIOD  163


  VOLUME BUDGET FOR ENTIRE MODEL AT END OF TIME STEP    1, STRESS PERIOD 163
  ---------------------------------------------------------------------------------------------------

     CUMULATIVE VOLUME      L**3       RATES FOR THIS TIME STEP      L**3/T          PACKAGE NAME    
     ------------------                 ------------------------                     ----------------

           IN:                                      IN:
           ---                                      ---
              STO-SS =        6888.1528                STO-SS =         104.0709     STORAGE                          
                 RIV =           0.0000                   RIV =           0.0000     RIV-1                            
                 RCH =       26351.1323                   RCH =           0.2213     RCH_MSW                          

            TOTAL IN =       33239.2851              TOTAL IN =         104.2922

          OUT:                                     OUT:
          ----                                     ----
              STO-SS =       27284.9191                STO-SS =          14.7825     STORAGE                          
                 RIV =           0.0000                   RIV =           0.0000     RIV-1                            
                 RCH =        5954.3661                   RCH =          89.5097     RCH_MSW                          

           TOTAL OUT =       33239.2851             TOTAL OUT =         104.2922

            IN - OUT =       2.2067E-07              IN - OUT =       5.0734E-09

 PERCENT DISCREPANCY =           0.00     PERCENT DISCREPANCY =           0.00




         TIME SUMMARY AT END OF TIME STEP    1 IN STRESS PERIOD  163
                    SECONDS     MINUTES      HOURS       DAYS        YEARS
                    -----------------------------------------------------------
   TIME STEP LENGTH  86400.      1440.0      24.000      1.0000     2.73785E-03
 STRESS PERIOD TIME  86400.      1440.0      24.000      1.0000     2.73785E-03
         TOTAL TIME 1.40832E+07 2.34720E+05  3912.0      163.00     0.44627    


end timestep


start timestep kper="164" kstp="1" mode="normal"


 OUTPUT CONTROL FOR STRESS PERIOD 164 IS REPEATED USING SETTINGS FROM A PREVIOUS STRESS PERIOD.


 STRESS PERIOD 164 IS TRANSIENT

 UBDSV1 SAVING     FLOW-JA-FACE ON UNIT   1016 AT TIME STEP      1, STRESS PERIOD    164
 UBDSV06 SAVING              RIV IN MODEL GWF_1            PACKAGE GWF_1           CONNECTED TO MODEL GWF_1            PACKAGE RIV-1            ON UNIT   1016 AT TIME STEP      1, STRESS PERIOD    164
 UBDSV06 SAVING              RCH IN MODEL GWF_1            PACKAGE GWF_1           CONNECTED TO MODEL GWF_1            PACKAGE RCH_MSW          ON UNIT   1016 AT TIME STEP      1, STRESS PERIOD    164

 HEAD WILL BE SAVED ON UNIT 1017 AT END OF TIME STEP    1, STRESS PERIOD  164


  VOLUME BUDGET FOR ENTIRE MODEL AT END OF TIME STEP    1, STRESS PERIOD 164
  ---------------------------------------------------------------------------------------------------

     CUMULATIVE VOLUME      L**3       RATES FOR THIS TIME STEP      L**3/T          PACKAGE NAME    
     ------------------                 ------------------------                     ----------------

           IN:                                      IN:
           ---                                      ---
              STO-SS =        6995.9461                STO-SS =         107.7932     STORAGE                          
                 RIV =           0.0000                   RIV =           0.0000     RIV-1                            
                 RCH =       26351.3415                   RCH =           0.2091     RCH_MSW                          

            TOTAL IN =       33347.2875              TOTAL IN =         108.0024

          OUT:                                     OUT:
          ----                                     ----
              STO-SS =       27299.6498                STO-SS =          14.7307     STORAGE                          
                 RIV =           0.0000                   RIV =           0.0000     RIV-1                            
                 RCH =        6047.6378                   RCH =          93.2717     RCH_MSW                          

           TOTAL OUT =       33347.2875             TOTAL OUT =         108.0024

            IN - OUT =       2.1238E-07              IN - OUT =      -8.2919E-09

 PERCENT DISCREPANCY =           0.00     PERCENT DISCREPANCY =          -0.00




         TIME SUMMARY AT END OF TIME STEP    1 IN STRESS PERIOD  164
                    SECONDS     MINUTES      HOURS       DAYS        YEARS
                    -----------------------------------------------------------
   TIME STEP LENGTH  86400.      1440.0      24.000      1.0000     2.73785E-03
 STRESS PERIOD TIME  86400.      1440.0      24.000      1.0000     2.73785E-03
         TOTAL TIME 1.41696E+07 2.36160E+05  3936.0      164.00     0.44901    


end timestep


start timestep kper="165" kstp="1" mode="normal"


 OUTPUT CONTROL FOR STRESS PERIOD 165 IS REPEATED USING SETTINGS FROM A PREVIOUS STRESS PERIOD.


 STRESS PERIOD 165 IS TRANSIENT

 UBDSV1 SAVING     FLOW-JA-FACE ON UNIT   1016 AT TIME STEP      1, STRESS PERIOD    165
 UBDSV06 SAVING              RIV IN MODEL GWF_1            PACKAGE GWF_1           CONNECTED TO MODEL GWF_1            PACKAGE RIV-1            ON UNIT   1016 AT TIME STEP      1, STRESS PERIOD    165
 UBDSV06 SAVING              RCH IN MODEL GWF_1            PACKAGE GWF_1           CONNECTED TO MODEL GWF_1            PACKAGE RCH_MSW          ON UNIT   1016 AT TIME STEP      1, STRESS PERIOD    165

 HEAD WILL BE SAVED ON UNIT 1017 AT END OF TIME STEP    1, STRESS PERIOD  165


  VOLUME BUDGET FOR ENTIRE MODEL AT END OF TIME STEP    1, STRESS PERIOD 165
  ---------------------------------------------------------------------------------------------------

     CUMULATIVE VOLUME      L**3       RATES FOR THIS TIME STEP      L**3/T          PACKAGE NAME    
     ------------------                 ------------------------                     ----------------

           IN:                                      IN:
           ---                                      ---
              STO-SS =        7059.6050                STO-SS =          63.6589     STORAGE                          
                 RIV =           0.0000                   RIV =           0.0000     RIV-1                            
                 RCH =       26482.2254                   RCH =         130.8840     RCH_MSW                          

            TOTAL IN =       33541.8305              TOTAL IN =         194.5429

          OUT:                                     OUT:
          ----                                     ----
              STO-SS =       27442.6111                STO-SS =         142.9614     STORAGE                          
                 RIV =           0.0000                   RIV =           0.0000     RIV-1                            
                 RCH =        6099.2193                   RCH =          51.5816     RCH_MSW                          

           TOTAL OUT =       33541.8305             TOTAL OUT =         194.5429

            IN - OUT =       2.0000E-07              IN - OUT =      -1.2379E-08

 PERCENT DISCREPANCY =           0.00     PERCENT DISCREPANCY =          -0.00




         TIME SUMMARY AT END OF TIME STEP    1 IN STRESS PERIOD  165
                    SECONDS     MINUTES      HOURS       DAYS        YEARS
                    -----------------------------------------------------------
   TIME STEP LENGTH  86400.      1440.0      24.000      1.0000     2.73785E-03
 STRESS PERIOD TIME  86400.      1440.0      24.000      1.0000     2.73785E-03
         TOTAL TIME 1.42560E+07 2.37600E+05  3960.0      165.00     0.45175    


end timestep


start timestep kper="166" kstp="1" mode="normal"


 OUTPUT CONTROL FOR STRESS PERIOD 166 IS REPEATED USING SETTINGS FROM A PREVIOUS STRESS PERIOD.


 STRESS PERIOD 166 IS TRANSIENT

 UBDSV1 SAVING     FLOW-JA-FACE ON UNIT   1016 AT TIME STEP      1, STRESS PERIOD    166
 UBDSV06 SAVING              RIV IN MODEL GWF_1            PACKAGE GWF_1           CONNECTED TO MODEL GWF_1            PACKAGE RIV-1            ON UNIT   1016 AT TIME STEP      1, STRESS PERIOD    166
 UBDSV06 SAVING              RCH IN MODEL GWF_1            PACKAGE GWF_1           CONNECTED TO MODEL GWF_1            PACKAGE RCH_MSW          ON UNIT   1016 AT TIME STEP      1, STRESS PERIOD    166

 HEAD WILL BE SAVED ON UNIT 1017 AT END OF TIME STEP    1, STRESS PERIOD  166


  VOLUME BUDGET FOR ENTIRE MODEL AT END OF TIME STEP    1, STRESS PERIOD 166
  ---------------------------------------------------------------------------------------------------

     CUMULATIVE VOLUME      L**3       RATES FOR THIS TIME STEP      L**3/T          PACKAGE NAME    
     ------------------                 ------------------------                     ----------------

           IN:                                      IN:
           ---                                      ---
              STO-SS =        7111.9356                STO-SS =          52.3306     STORAGE                          
                 RIV =           0.0000                   RIV =           0.0000     RIV-1                            
                 RCH =       26693.8776                   RCH =         211.6521     RCH_MSW                          

            TOTAL IN =       33805.8132              TOTAL IN =         263.9827

          OUT:                                     OUT:
          ----                                     ----
              STO-SS =       27665.6379                STO-SS =         223.0268     STORAGE                          
                 RIV =           0.0000                   RIV =           0.0000     RIV-1                            
                 RCH =        6140.1753                   RCH =          40.9559     RCH_MSW                          

           TOTAL OUT =       33805.8132             TOTAL OUT =         263.9827

            IN - OUT =       2.0158E-07              IN - OUT =       1.5832E-09

 PERCENT DISCREPANCY =           0.00     PERCENT DISCREPANCY =           0.00




         TIME SUMMARY AT END OF TIME STEP    1 IN STRESS PERIOD  166
                    SECONDS     MINUTES      HOURS       DAYS        YEARS
                    -----------------------------------------------------------
   TIME STEP LENGTH  86400.      1440.0      24.000      1.0000     2.73785E-03
 STRESS PERIOD TIME  86400.      1440.0      24.000      1.0000     2.73785E-03
         TOTAL TIME 1.43424E+07 2.39040E+05  3984.0      166.00     0.45448    


end timestep


start timestep kper="167" kstp="1" mode="normal"


 OUTPUT CONTROL FOR STRESS PERIOD 167 IS REPEATED USING SETTINGS FROM A PREVIOUS STRESS PERIOD.


 STRESS PERIOD 167 IS TRANSIENT

 UBDSV1 SAVING     FLOW-JA-FACE ON UNIT   1016 AT TIME STEP      1, STRESS PERIOD    167
 UBDSV06 SAVING              RIV IN MODEL GWF_1            PACKAGE GWF_1           CONNECTED TO MODEL GWF_1            PACKAGE RIV-1            ON UNIT   1016 AT TIME STEP      1, STRESS PERIOD    167
 UBDSV06 SAVING              RCH IN MODEL GWF_1            PACKAGE GWF_1           CONNECTED TO MODEL GWF_1            PACKAGE RCH_MSW          ON UNIT   1016 AT TIME STEP      1, STRESS PERIOD    167

 HEAD WILL BE SAVED ON UNIT 1017 AT END OF TIME STEP    1, STRESS PERIOD  167


  VOLUME BUDGET FOR ENTIRE MODEL AT END OF TIME STEP    1, STRESS PERIOD 167
  ---------------------------------------------------------------------------------------------------

     CUMULATIVE VOLUME      L**3       RATES FOR THIS TIME STEP      L**3/T          PACKAGE NAME    
     ------------------                 ------------------------                     ----------------

           IN:                                      IN:
           ---                                      ---
              STO-SS =        7162.3733                STO-SS =          50.4378     STORAGE                          
                 RIV =           0.0000                   RIV =           0.0000     RIV-1                            
                 RCH =       26767.9666                   RCH =          74.0890     RCH_MSW                          

            TOTAL IN =       33930.3399              TOTAL IN =         124.5267

          OUT:                                     OUT:
          ----                                     ----
              STO-SS =       27752.5860                STO-SS =          86.9481     STORAGE                          
                 RIV =           0.0000                   RIV =           0.0000     RIV-1                            
                 RCH =        6177.7539                   RCH =          37.5787     RCH_MSW                          

           TOTAL OUT =       33930.3399             TOTAL OUT =         124.5267

            IN - OUT =       2.0965E-07              IN - OUT =       8.0639E-09

 PERCENT DISCREPANCY =           0.00     PERCENT DISCREPANCY =           0.00




         TIME SUMMARY AT END OF TIME STEP    1 IN STRESS PERIOD  167
                    SECONDS     MINUTES      HOURS       DAYS        YEARS
                    -----------------------------------------------------------
   TIME STEP LENGTH  86400.      1440.0      24.000      1.0000     2.73785E-03
 STRESS PERIOD TIME  86400.      1440.0      24.000      1.0000     2.73785E-03
         TOTAL TIME 1.44288E+07 2.40480E+05  4008.0      167.00     0.45722    


end timestep


start timestep kper="168" kstp="1" mode="normal"


 OUTPUT CONTROL FOR STRESS PERIOD 168 IS REPEATED USING SETTINGS FROM A PREVIOUS STRESS PERIOD.


 STRESS PERIOD 168 IS TRANSIENT

 UBDSV1 SAVING     FLOW-JA-FACE ON UNIT   1016 AT TIME STEP      1, STRESS PERIOD    168
 UBDSV06 SAVING              RIV IN MODEL GWF_1            PACKAGE GWF_1           CONNECTED TO MODEL GWF_1            PACKAGE RIV-1            ON UNIT   1016 AT TIME STEP      1, STRESS PERIOD    168
 UBDSV06 SAVING              RCH IN MODEL GWF_1            PACKAGE GWF_1           CONNECTED TO MODEL GWF_1            PACKAGE RCH_MSW          ON UNIT   1016 AT TIME STEP      1, STRESS PERIOD    168

 HEAD WILL BE SAVED ON UNIT 1017 AT END OF TIME STEP    1, STRESS PERIOD  168


  VOLUME BUDGET FOR ENTIRE MODEL AT END OF TIME STEP    1, STRESS PERIOD 168
  ---------------------------------------------------------------------------------------------------

     CUMULATIVE VOLUME      L**3       RATES FOR THIS TIME STEP      L**3/T          PACKAGE NAME    
     ------------------                 ------------------------                     ----------------

           IN:                                      IN:
           ---                                      ---
              STO-SS =        7208.7788                STO-SS =          46.4055     STORAGE                          
                 RIV =           0.0000                   RIV =           0.0000     RIV-1                            
                 RCH =       26805.2259                   RCH =          37.2593     RCH_MSW                          

            TOTAL IN =       34014.0047              TOTAL IN =          83.6648

          OUT:                                     OUT:
          ----                                     ----
              STO-SS =       27802.6566                STO-SS =          50.0706     STORAGE                          
                 RIV =           0.0000                   RIV =           0.0000     RIV-1                            
                 RCH =        6211.3481                   RCH =          33.5942     RCH_MSW                          

           TOTAL OUT =       34014.0047             TOTAL OUT =          83.6648

            IN - OUT =       2.1173E-07              IN - OUT =       2.0826E-09

 PERCENT DISCREPANCY =           0.00     PERCENT DISCREPANCY =           0.00




         TIME SUMMARY AT END OF TIME STEP    1 IN STRESS PERIOD  168
                    SECONDS     MINUTES      HOURS       DAYS        YEARS
                    -----------------------------------------------------------
   TIME STEP LENGTH  86400.      1440.0      24.000      1.0000     2.73785E-03
 STRESS PERIOD TIME  86400.      1440.0      24.000      1.0000     2.73785E-03
         TOTAL TIME 1.45152E+07 2.41920E+05  4032.0      168.00     0.45996    


end timestep


start timestep kper="169" kstp="1" mode="normal"


 OUTPUT CONTROL FOR STRESS PERIOD 169 IS REPEATED USING SETTINGS FROM A PREVIOUS STRESS PERIOD.


 STRESS PERIOD 169 IS TRANSIENT

 UBDSV1 SAVING     FLOW-JA-FACE ON UNIT   1016 AT TIME STEP      1, STRESS PERIOD    169
 UBDSV06 SAVING              RIV IN MODEL GWF_1            PACKAGE GWF_1           CONNECTED TO MODEL GWF_1            PACKAGE RIV-1            ON UNIT   1016 AT TIME STEP      1, STRESS PERIOD    169
 UBDSV06 SAVING              RCH IN MODEL GWF_1            PACKAGE GWF_1           CONNECTED TO MODEL GWF_1            PACKAGE RCH_MSW          ON UNIT   1016 AT TIME STEP      1, STRESS PERIOD    169

 HEAD WILL BE SAVED ON UNIT 1017 AT END OF TIME STEP    1, STRESS PERIOD  169


  VOLUME BUDGET FOR ENTIRE MODEL AT END OF TIME STEP    1, STRESS PERIOD 169
  ---------------------------------------------------------------------------------------------------

     CUMULATIVE VOLUME      L**3       RATES FOR THIS TIME STEP      L**3/T          PACKAGE NAME    
     ------------------                 ------------------------                     ----------------

           IN:                                      IN:
           ---                                      ---
              STO-SS =        7250.6244                STO-SS =          41.8456     STORAGE                          
                 RIV =           0.0000                   RIV =           0.0000     RIV-1                            
                 RCH =       26830.8241                   RCH =          25.5982     RCH_MSW                          

            TOTAL IN =       34081.4486              TOTAL IN =          67.4438

          OUT:                                     OUT:
          ----                                     ----
              STO-SS =       27840.9975                STO-SS =          38.3409     STORAGE                          
                 RIV =           0.0000                   RIV =           0.0000     RIV-1                            
                 RCH =        6240.4510                   RCH =          29.1029     RCH_MSW                          

           TOTAL OUT =       34081.4486             TOTAL OUT =          67.4438

            IN - OUT =       2.1094E-07              IN - OUT =      -7.9334E-10

 PERCENT DISCREPANCY =           0.00     PERCENT DISCREPANCY =          -0.00




         TIME SUMMARY AT END OF TIME STEP    1 IN STRESS PERIOD  169
                    SECONDS     MINUTES      HOURS       DAYS        YEARS
                    -----------------------------------------------------------
   TIME STEP LENGTH  86400.      1440.0      24.000      1.0000     2.73785E-03
 STRESS PERIOD TIME  86400.      1440.0      24.000      1.0000     2.73785E-03
         TOTAL TIME 1.46016E+07 2.43360E+05  4056.0      169.00     0.46270    


end timestep


start timestep kper="170" kstp="1" mode="normal"


 OUTPUT CONTROL FOR STRESS PERIOD 170 IS REPEATED USING SETTINGS FROM A PREVIOUS STRESS PERIOD.


 STRESS PERIOD 170 IS TRANSIENT

 UBDSV1 SAVING     FLOW-JA-FACE ON UNIT   1016 AT TIME STEP      1, STRESS PERIOD    170
 UBDSV06 SAVING              RIV IN MODEL GWF_1            PACKAGE GWF_1           CONNECTED TO MODEL GWF_1            PACKAGE RIV-1            ON UNIT   1016 AT TIME STEP      1, STRESS PERIOD    170
 UBDSV06 SAVING              RCH IN MODEL GWF_1            PACKAGE GWF_1           CONNECTED TO MODEL GWF_1            PACKAGE RCH_MSW          ON UNIT   1016 AT TIME STEP      1, STRESS PERIOD    170

 HEAD WILL BE SAVED ON UNIT 1017 AT END OF TIME STEP    1, STRESS PERIOD  170


  VOLUME BUDGET FOR ENTIRE MODEL AT END OF TIME STEP    1, STRESS PERIOD 170
  ---------------------------------------------------------------------------------------------------

     CUMULATIVE VOLUME      L**3       RATES FOR THIS TIME STEP      L**3/T          PACKAGE NAME    
     ------------------                 ------------------------                     ----------------

           IN:                                      IN:
           ---                                      ---
              STO-SS =        7269.7630                STO-SS =          19.1386     STORAGE                          
                 RIV =           0.0000                   RIV =           0.0000     RIV-1                            
                 RCH =       27062.6130                   RCH =         231.7889     RCH_MSW                          

            TOTAL IN =       34332.3760              TOTAL IN =         250.9275

          OUT:                                     OUT:
          ----                                     ----
              STO-SS =       28081.7834                STO-SS =         240.7859     STORAGE                          
                 RIV =           0.0000                   RIV =           0.0000     RIV-1                            
                 RCH =        6250.5926                   RCH =          10.1416     RCH_MSW                          

           TOTAL OUT =       34332.3760             TOTAL OUT =         250.9275

            IN - OUT =       2.2497E-07              IN - OUT =       1.4041E-08

 PERCENT DISCREPANCY =           0.00     PERCENT DISCREPANCY =           0.00




         TIME SUMMARY AT END OF TIME STEP    1 IN STRESS PERIOD  170
                    SECONDS     MINUTES      HOURS       DAYS        YEARS
                    -----------------------------------------------------------
   TIME STEP LENGTH  86400.      1440.0      24.000      1.0000     2.73785E-03
 STRESS PERIOD TIME  86400.      1440.0      24.000      1.0000     2.73785E-03
         TOTAL TIME 1.46880E+07 2.44800E+05  4080.0      170.00     0.46543    


end timestep


start timestep kper="171" kstp="1" mode="normal"


 OUTPUT CONTROL FOR STRESS PERIOD 171 IS REPEATED USING SETTINGS FROM A PREVIOUS STRESS PERIOD.


 STRESS PERIOD 171 IS TRANSIENT

 UBDSV1 SAVING     FLOW-JA-FACE ON UNIT   1016 AT TIME STEP      1, STRESS PERIOD    171
 UBDSV06 SAVING              RIV IN MODEL GWF_1            PACKAGE GWF_1           CONNECTED TO MODEL GWF_1            PACKAGE RIV-1            ON UNIT   1016 AT TIME STEP      1, STRESS PERIOD    171
 UBDSV06 SAVING              RCH IN MODEL GWF_1            PACKAGE GWF_1           CONNECTED TO MODEL GWF_1            PACKAGE RCH_MSW          ON UNIT   1016 AT TIME STEP      1, STRESS PERIOD    171

 HEAD WILL BE SAVED ON UNIT 1017 AT END OF TIME STEP    1, STRESS PERIOD  171


  VOLUME BUDGET FOR ENTIRE MODEL AT END OF TIME STEP    1, STRESS PERIOD 171
  ---------------------------------------------------------------------------------------------------

     CUMULATIVE VOLUME      L**3       RATES FOR THIS TIME STEP      L**3/T          PACKAGE NAME    
     ------------------                 ------------------------                     ----------------

           IN:                                      IN:
           ---                                      ---
              STO-SS =        7280.8069                STO-SS =          11.0439     STORAGE                          
                 RIV =           0.0000                   RIV =           0.0000     RIV-1                            
                 RCH =       27466.1563                   RCH =         403.5433     RCH_MSW                          

            TOTAL IN =       34746.9632              TOTAL IN =         414.5872

          OUT:                                     OUT:
          ----                                     ----
              STO-SS =       28492.6405                STO-SS =         410.8571     STORAGE                          
                 RIV =           0.0000                   RIV =           0.0000     RIV-1                            
                 RCH =        6254.3227                   RCH =           3.7301     RCH_MSW                          

           TOTAL OUT =       34746.9632             TOTAL OUT =         414.5872

            IN - OUT =       2.2567E-07              IN - OUT =       6.9025E-10

 PERCENT DISCREPANCY =           0.00     PERCENT DISCREPANCY =           0.00




         TIME SUMMARY AT END OF TIME STEP    1 IN STRESS PERIOD  171
                    SECONDS     MINUTES      HOURS       DAYS        YEARS
                    -----------------------------------------------------------
   TIME STEP LENGTH  86400.      1440.0      24.000      1.0000     2.73785E-03
 STRESS PERIOD TIME  86400.      1440.0      24.000      1.0000     2.73785E-03
         TOTAL TIME 1.47744E+07 2.46240E+05  4104.0      171.00     0.46817    


end timestep


start timestep kper="172" kstp="1" mode="normal"


 OUTPUT CONTROL FOR STRESS PERIOD 172 IS REPEATED USING SETTINGS FROM A PREVIOUS STRESS PERIOD.


 STRESS PERIOD 172 IS TRANSIENT

 UBDSV1 SAVING     FLOW-JA-FACE ON UNIT   1016 AT TIME STEP      1, STRESS PERIOD    172
 UBDSV06 SAVING              RIV IN MODEL GWF_1            PACKAGE GWF_1           CONNECTED TO MODEL GWF_1            PACKAGE RIV-1            ON UNIT   1016 AT TIME STEP      1, STRESS PERIOD    172
 UBDSV06 SAVING              RCH IN MODEL GWF_1            PACKAGE GWF_1           CONNECTED TO MODEL GWF_1            PACKAGE RCH_MSW          ON UNIT   1016 AT TIME STEP      1, STRESS PERIOD    172

 HEAD WILL BE SAVED ON UNIT 1017 AT END OF TIME STEP    1, STRESS PERIOD  172


  VOLUME BUDGET FOR ENTIRE MODEL AT END OF TIME STEP    1, STRESS PERIOD 172
  ---------------------------------------------------------------------------------------------------

     CUMULATIVE VOLUME      L**3       RATES FOR THIS TIME STEP      L**3/T          PACKAGE NAME    
     ------------------                 ------------------------                     ----------------

           IN:                                      IN:
           ---                                      ---
              STO-SS =        7289.5531                STO-SS =           8.7462     STORAGE                          
                 RIV =           0.0000                   RIV =           0.0000     RIV-1                            
                 RCH =       27679.5828                   RCH =         213.4265     RCH_MSW                          

            TOTAL IN =       34969.1359              TOTAL IN =         222.1727

          OUT:                                     OUT:
          ----                                     ----
              STO-SS =       28712.3682                STO-SS =         219.7277     STORAGE                          
                 RIV =           0.0000                   RIV =           0.0000     RIV-1                            
                 RCH =        6256.7677                   RCH =           2.4450     RCH_MSW                          

           TOTAL OUT =       34969.1359             TOTAL OUT =         222.1727

            IN - OUT =       2.2386E-07              IN - OUT =      -1.8128E-09

 PERCENT DISCREPANCY =           0.00     PERCENT DISCREPANCY =          -0.00




         TIME SUMMARY AT END OF TIME STEP    1 IN STRESS PERIOD  172
                    SECONDS     MINUTES      HOURS       DAYS        YEARS
                    -----------------------------------------------------------
   TIME STEP LENGTH  86400.      1440.0      24.000      1.0000     2.73785E-03
 STRESS PERIOD TIME  86400.      1440.0      24.000      1.0000     2.73785E-03
         TOTAL TIME 1.48608E+07 2.47680E+05  4128.0      172.00     0.47091    


end timestep


start timestep kper="173" kstp="1" mode="normal"


 OUTPUT CONTROL FOR STRESS PERIOD 173 IS REPEATED USING SETTINGS FROM A PREVIOUS STRESS PERIOD.


 STRESS PERIOD 173 IS TRANSIENT

 UBDSV1 SAVING     FLOW-JA-FACE ON UNIT   1016 AT TIME STEP      1, STRESS PERIOD    173
 UBDSV06 SAVING              RIV IN MODEL GWF_1            PACKAGE GWF_1           CONNECTED TO MODEL GWF_1            PACKAGE RIV-1            ON UNIT   1016 AT TIME STEP      1, STRESS PERIOD    173
 UBDSV06 SAVING              RCH IN MODEL GWF_1            PACKAGE GWF_1           CONNECTED TO MODEL GWF_1            PACKAGE RCH_MSW          ON UNIT   1016 AT TIME STEP      1, STRESS PERIOD    173

 HEAD WILL BE SAVED ON UNIT 1017 AT END OF TIME STEP    1, STRESS PERIOD  173


  VOLUME BUDGET FOR ENTIRE MODEL AT END OF TIME STEP    1, STRESS PERIOD 173
  ---------------------------------------------------------------------------------------------------

     CUMULATIVE VOLUME      L**3       RATES FOR THIS TIME STEP      L**3/T          PACKAGE NAME    
     ------------------                 ------------------------                     ----------------

           IN:                                      IN:
           ---                                      ---
              STO-SS =        7297.3782                STO-SS =           7.8251     STORAGE                          
                 RIV =           0.0000                   RIV =           0.0000     RIV-1                            
                 RCH =       27864.8118                   RCH =         185.2290     RCH_MSW                          

            TOTAL IN =       35162.1900              TOTAL IN =         193.0541

          OUT:                                     OUT:
          ----                                     ----
              STO-SS =       28903.5858                STO-SS =         191.2176     STORAGE                          
                 RIV =           0.0000                   RIV =           0.0000     RIV-1                            
                 RCH =        6258.6042                   RCH =           1.8365     RCH_MSW                          

           TOTAL OUT =       35162.1900             TOTAL OUT =         193.0541

            IN - OUT =       2.1586E-07              IN - OUT =      -7.9845E-09

 PERCENT DISCREPANCY =           0.00     PERCENT DISCREPANCY =          -0.00




         TIME SUMMARY AT END OF TIME STEP    1 IN STRESS PERIOD  173
                    SECONDS     MINUTES      HOURS       DAYS        YEARS
                    -----------------------------------------------------------
   TIME STEP LENGTH  86400.      1440.0      24.000      1.0000     2.73785E-03
 STRESS PERIOD TIME  86400.      1440.0      24.000      1.0000     2.73785E-03
         TOTAL TIME 1.49472E+07 2.49120E+05  4152.0      173.00     0.47365    


end timestep


start timestep kper="174" kstp="1" mode="normal"


 OUTPUT CONTROL FOR STRESS PERIOD 174 IS REPEATED USING SETTINGS FROM A PREVIOUS STRESS PERIOD.


 STRESS PERIOD 174 IS TRANSIENT

 UBDSV1 SAVING     FLOW-JA-FACE ON UNIT   1016 AT TIME STEP      1, STRESS PERIOD    174
 UBDSV06 SAVING              RIV IN MODEL GWF_1            PACKAGE GWF_1           CONNECTED TO MODEL GWF_1            PACKAGE RIV-1            ON UNIT   1016 AT TIME STEP      1, STRESS PERIOD    174
 UBDSV06 SAVING              RCH IN MODEL GWF_1            PACKAGE GWF_1           CONNECTED TO MODEL GWF_1            PACKAGE RCH_MSW          ON UNIT   1016 AT TIME STEP      1, STRESS PERIOD    174

 HEAD WILL BE SAVED ON UNIT 1017 AT END OF TIME STEP    1, STRESS PERIOD  174


  VOLUME BUDGET FOR ENTIRE MODEL AT END OF TIME STEP    1, STRESS PERIOD 174
  ---------------------------------------------------------------------------------------------------

     CUMULATIVE VOLUME      L**3       RATES FOR THIS TIME STEP      L**3/T          PACKAGE NAME    
     ------------------                 ------------------------                     ----------------

           IN:                                      IN:
           ---                                      ---
              STO-SS =        7312.6023                STO-SS =          15.2241     STORAGE                          
                 RIV =           0.0000                   RIV =           0.0000     RIV-1                            
                 RCH =       27992.0004                   RCH =         127.1886     RCH_MSW                          

            TOTAL IN =       35304.6027              TOTAL IN =         142.4127

          OUT:                                     OUT:
          ----                                     ----
              STO-SS =       29038.7162                STO-SS =         135.1304     STORAGE                          
                 RIV =           0.0000                   RIV =           0.0000     RIV-1                            
                 RCH =        6265.8865                   RCH =           7.2822     RCH_MSW                          

           TOTAL OUT =       35304.6027             TOTAL OUT =         142.4127

            IN - OUT =       2.1582E-07              IN - OUT =      -4.9880E-11

 PERCENT DISCREPANCY =           0.00     PERCENT DISCREPANCY =          -0.00




         TIME SUMMARY AT END OF TIME STEP    1 IN STRESS PERIOD  174
                    SECONDS     MINUTES      HOURS       DAYS        YEARS
                    -----------------------------------------------------------
   TIME STEP LENGTH  86400.      1440.0      24.000      1.0000     2.73785E-03
 STRESS PERIOD TIME  86400.      1440.0      24.000      1.0000     2.73785E-03
         TOTAL TIME 1.50336E+07 2.50560E+05  4176.0      174.00     0.47639    


end timestep


start timestep kper="175" kstp="1" mode="normal"


 OUTPUT CONTROL FOR STRESS PERIOD 175 IS REPEATED USING SETTINGS FROM A PREVIOUS STRESS PERIOD.


 STRESS PERIOD 175 IS TRANSIENT

 UBDSV1 SAVING     FLOW-JA-FACE ON UNIT   1016 AT TIME STEP      1, STRESS PERIOD    175
 UBDSV06 SAVING              RIV IN MODEL GWF_1            PACKAGE GWF_1           CONNECTED TO MODEL GWF_1            PACKAGE RIV-1            ON UNIT   1016 AT TIME STEP      1, STRESS PERIOD    175
 UBDSV06 SAVING              RCH IN MODEL GWF_1            PACKAGE GWF_1           CONNECTED TO MODEL GWF_1            PACKAGE RCH_MSW          ON UNIT   1016 AT TIME STEP      1, STRESS PERIOD    175

 HEAD WILL BE SAVED ON UNIT 1017 AT END OF TIME STEP    1, STRESS PERIOD  175


  VOLUME BUDGET FOR ENTIRE MODEL AT END OF TIME STEP    1, STRESS PERIOD 175
  ---------------------------------------------------------------------------------------------------

     CUMULATIVE VOLUME      L**3       RATES FOR THIS TIME STEP      L**3/T          PACKAGE NAME    
     ------------------                 ------------------------                     ----------------

           IN:                                      IN:
           ---                                      ---
              STO-SS =        7344.9060                STO-SS =          32.3037     STORAGE                          
                 RIV =           0.0000                   RIV =           0.0000     RIV-1                            
                 RCH =       28084.8236                   RCH =          92.8231     RCH_MSW                          

            TOTAL IN =       35429.7296              TOTAL IN =         125.1269

          OUT:                                     OUT:
          ----                                     ----
              STO-SS =       29139.3936                STO-SS =         100.6774     STORAGE                          
                 RIV =           0.0000                   RIV =           0.0000     RIV-1                            
                 RCH =        6290.3360                   RCH =          24.4495     RCH_MSW                          

           TOTAL OUT =       35429.7296             TOTAL OUT =         125.1269

            IN - OUT =       2.1506E-07              IN - OUT =      -7.6079E-10

 PERCENT DISCREPANCY =           0.00     PERCENT DISCREPANCY =          -0.00




         TIME SUMMARY AT END OF TIME STEP    1 IN STRESS PERIOD  175
                    SECONDS     MINUTES      HOURS       DAYS        YEARS
                    -----------------------------------------------------------
   TIME STEP LENGTH  86400.      1440.0      24.000      1.0000     2.73785E-03
 STRESS PERIOD TIME  86400.      1440.0      24.000      1.0000     2.73785E-03
         TOTAL TIME 1.51200E+07 2.52000E+05  4200.0      175.00     0.47912    


end timestep


start timestep kper="176" kstp="1" mode="normal"


 OUTPUT CONTROL FOR STRESS PERIOD 176 IS REPEATED USING SETTINGS FROM A PREVIOUS STRESS PERIOD.


 STRESS PERIOD 176 IS TRANSIENT

 UBDSV1 SAVING     FLOW-JA-FACE ON UNIT   1016 AT TIME STEP      1, STRESS PERIOD    176
 UBDSV06 SAVING              RIV IN MODEL GWF_1            PACKAGE GWF_1           CONNECTED TO MODEL GWF_1            PACKAGE RIV-1            ON UNIT   1016 AT TIME STEP      1, STRESS PERIOD    176
 UBDSV06 SAVING              RCH IN MODEL GWF_1            PACKAGE GWF_1           CONNECTED TO MODEL GWF_1            PACKAGE RCH_MSW          ON UNIT   1016 AT TIME STEP      1, STRESS PERIOD    176

 HEAD WILL BE SAVED ON UNIT 1017 AT END OF TIME STEP    1, STRESS PERIOD  176


  VOLUME BUDGET FOR ENTIRE MODEL AT END OF TIME STEP    1, STRESS PERIOD 176
  ---------------------------------------------------------------------------------------------------

     CUMULATIVE VOLUME      L**3       RATES FOR THIS TIME STEP      L**3/T          PACKAGE NAME    
     ------------------                 ------------------------                     ----------------

           IN:                                      IN:
           ---                                      ---
              STO-SS =        7386.7740                STO-SS =          41.8680     STORAGE                          
                 RIV =           0.0000                   RIV =           0.0000     RIV-1                            
                 RCH =       28149.6541                   RCH =          64.8305     RCH_MSW                          

            TOTAL IN =       35536.4281              TOTAL IN =         106.6985

          OUT:                                     OUT:
          ----                                     ----
              STO-SS =       29212.8646                STO-SS =          73.4710     STORAGE                          
                 RIV =           0.0000                   RIV =           0.0000     RIV-1                            
                 RCH =        6323.5636                   RCH =          33.2276     RCH_MSW                          

           TOTAL OUT =       35536.4281             TOTAL OUT =         106.6985

            IN - OUT =       2.2817E-07              IN - OUT =       1.3122E-08

 PERCENT DISCREPANCY =           0.00     PERCENT DISCREPANCY =           0.00




         TIME SUMMARY AT END OF TIME STEP    1 IN STRESS PERIOD  176
                    SECONDS     MINUTES      HOURS       DAYS        YEARS
                    -----------------------------------------------------------
   TIME STEP LENGTH  86400.      1440.0      24.000      1.0000     2.73785E-03
 STRESS PERIOD TIME  86400.      1440.0      24.000      1.0000     2.73785E-03
         TOTAL TIME 1.52064E+07 2.53440E+05  4224.0      176.00     0.48186    


end timestep


start timestep kper="177" kstp="1" mode="normal"


 OUTPUT CONTROL FOR STRESS PERIOD 177 IS REPEATED USING SETTINGS FROM A PREVIOUS STRESS PERIOD.


 STRESS PERIOD 177 IS TRANSIENT

 UBDSV1 SAVING     FLOW-JA-FACE ON UNIT   1016 AT TIME STEP      1, STRESS PERIOD    177
 UBDSV06 SAVING              RIV IN MODEL GWF_1            PACKAGE GWF_1           CONNECTED TO MODEL GWF_1            PACKAGE RIV-1            ON UNIT   1016 AT TIME STEP      1, STRESS PERIOD    177
 UBDSV06 SAVING              RCH IN MODEL GWF_1            PACKAGE GWF_1           CONNECTED TO MODEL GWF_1            PACKAGE RCH_MSW          ON UNIT   1016 AT TIME STEP      1, STRESS PERIOD    177

 HEAD WILL BE SAVED ON UNIT 1017 AT END OF TIME STEP    1, STRESS PERIOD  177


  VOLUME BUDGET FOR ENTIRE MODEL AT END OF TIME STEP    1, STRESS PERIOD 177
  ---------------------------------------------------------------------------------------------------

     CUMULATIVE VOLUME      L**3       RATES FOR THIS TIME STEP      L**3/T          PACKAGE NAME    
     ------------------                 ------------------------                     ----------------

           IN:                                      IN:
           ---                                      ---
              STO-SS =        7426.9238                STO-SS =          40.1498     STORAGE                          
                 RIV =           0.0000                   RIV =           0.0000     RIV-1                            
                 RCH =       28200.5411                   RCH =          50.8870     RCH_MSW                          

            TOTAL IN =       35627.4649              TOTAL IN =          91.0368

          OUT:                                     OUT:
          ----                                     ----
              STO-SS =       29272.2988                STO-SS =          59.4343     STORAGE                          
                 RIV =           0.0000                   RIV =           0.0000     RIV-1                            
                 RCH =        6355.1661                   RCH =          31.6025     RCH_MSW                          

           TOTAL OUT =       35627.4649             TOTAL OUT =          91.0368

            IN - OUT =       2.2817E-07              IN - OUT =      -2.5580E-12

 PERCENT DISCREPANCY =           0.00     PERCENT DISCREPANCY =          -0.00




         TIME SUMMARY AT END OF TIME STEP    1 IN STRESS PERIOD  177
                    SECONDS     MINUTES      HOURS       DAYS        YEARS
                    -----------------------------------------------------------
   TIME STEP LENGTH  86400.      1440.0      24.000      1.0000     2.73785E-03
 STRESS PERIOD TIME  86400.      1440.0      24.000      1.0000     2.73785E-03
         TOTAL TIME 1.52928E+07 2.54880E+05  4248.0      177.00     0.48460    


end timestep


start timestep kper="178" kstp="1" mode="normal"


 OUTPUT CONTROL FOR STRESS PERIOD 178 IS REPEATED USING SETTINGS FROM A PREVIOUS STRESS PERIOD.


 STRESS PERIOD 178 IS TRANSIENT

 UBDSV1 SAVING     FLOW-JA-FACE ON UNIT   1016 AT TIME STEP      1, STRESS PERIOD    178
 UBDSV06 SAVING              RIV IN MODEL GWF_1            PACKAGE GWF_1           CONNECTED TO MODEL GWF_1            PACKAGE RIV-1            ON UNIT   1016 AT TIME STEP      1, STRESS PERIOD    178
 UBDSV06 SAVING              RCH IN MODEL GWF_1            PACKAGE GWF_1           CONNECTED TO MODEL GWF_1            PACKAGE RCH_MSW          ON UNIT   1016 AT TIME STEP      1, STRESS PERIOD    178

 HEAD WILL BE SAVED ON UNIT 1017 AT END OF TIME STEP    1, STRESS PERIOD  178


  VOLUME BUDGET FOR ENTIRE MODEL AT END OF TIME STEP    1, STRESS PERIOD 178
  ---------------------------------------------------------------------------------------------------

     CUMULATIVE VOLUME      L**3       RATES FOR THIS TIME STEP      L**3/T          PACKAGE NAME    
     ------------------                 ------------------------                     ----------------

           IN:                                      IN:
           ---                                      ---
              STO-SS =        7470.2416                STO-SS =          43.3178     STORAGE                          
                 RIV =           0.0000                   RIV =           0.0000     RIV-1                            
                 RCH =       28236.9903                   RCH =          36.4492     RCH_MSW                          

            TOTAL IN =       35707.2320              TOTAL IN =          79.7671

          OUT:                                     OUT:
          ----                                     ----
              STO-SS =       29317.2025                STO-SS =          44.9037     STORAGE                          
                 RIV =           0.0000                   RIV =           0.0000     RIV-1                            
                 RCH =        6390.0295                   RCH =          34.8634     RCH_MSW                          

           TOTAL OUT =       35707.2320             TOTAL OUT =          79.7671

            IN - OUT =       2.2877E-07              IN - OUT =       6.0540E-10

 PERCENT DISCREPANCY =           0.00     PERCENT DISCREPANCY =           0.00




         TIME SUMMARY AT END OF TIME STEP    1 IN STRESS PERIOD  178
                    SECONDS     MINUTES      HOURS       DAYS        YEARS
                    -----------------------------------------------------------
   TIME STEP LENGTH  86400.      1440.0      24.000      1.0000     2.73785E-03
 STRESS PERIOD TIME  86400.      1440.0      24.000      1.0000     2.73785E-03
         TOTAL TIME 1.53792E+07 2.56320E+05  4272.0      178.00     0.48734    


end timestep


start timestep kper="179" kstp="1" mode="normal"


 OUTPUT CONTROL FOR STRESS PERIOD 179 IS REPEATED USING SETTINGS FROM A PREVIOUS STRESS PERIOD.


 STRESS PERIOD 179 IS TRANSIENT

 UBDSV1 SAVING     FLOW-JA-FACE ON UNIT   1016 AT TIME STEP      1, STRESS PERIOD    179
 UBDSV06 SAVING              RIV IN MODEL GWF_1            PACKAGE GWF_1           CONNECTED TO MODEL GWF_1            PACKAGE RIV-1            ON UNIT   1016 AT TIME STEP      1, STRESS PERIOD    179
 UBDSV06 SAVING              RCH IN MODEL GWF_1            PACKAGE GWF_1           CONNECTED TO MODEL GWF_1            PACKAGE RCH_MSW          ON UNIT   1016 AT TIME STEP      1, STRESS PERIOD    179

 HEAD WILL BE SAVED ON UNIT 1017 AT END OF TIME STEP    1, STRESS PERIOD  179


  VOLUME BUDGET FOR ENTIRE MODEL AT END OF TIME STEP    1, STRESS PERIOD 179
  ---------------------------------------------------------------------------------------------------

     CUMULATIVE VOLUME      L**3       RATES FOR THIS TIME STEP      L**3/T          PACKAGE NAME    
     ------------------                 ------------------------                     ----------------

           IN:                                      IN:
           ---                                      ---
              STO-SS =        7479.0886                STO-SS =           8.8469     STORAGE                          
                 RIV =           0.0000                   RIV =           0.0000     RIV-1                            
                 RCH =       28287.3630                   RCH =          50.3726     RCH_MSW                          

            TOTAL IN =       35766.4515              TOTAL IN =          59.2196

          OUT:                                     OUT:
          ----                                     ----
              STO-SS =       29373.7750                STO-SS =          56.5725     STORAGE                          
                 RIV =           0.0000                   RIV =           0.0000     RIV-1                            
                 RCH =        6392.6765                   RCH =           2.6470     RCH_MSW                          

           TOTAL OUT =       35766.4515             TOTAL OUT =          59.2196

            IN - OUT =       2.2318E-07              IN - OUT =      -5.6001E-09

 PERCENT DISCREPANCY =           0.00     PERCENT DISCREPANCY =          -0.00




         TIME SUMMARY AT END OF TIME STEP    1 IN STRESS PERIOD  179
                    SECONDS     MINUTES      HOURS       DAYS        YEARS
                    -----------------------------------------------------------
   TIME STEP LENGTH  86400.      1440.0      24.000      1.0000     2.73785E-03
 STRESS PERIOD TIME  86400.      1440.0      24.000      1.0000     2.73785E-03
         TOTAL TIME 1.54656E+07 2.57760E+05  4296.0      179.00     0.49008    


end timestep


start timestep kper="180" kstp="1" mode="normal"


 OUTPUT CONTROL FOR STRESS PERIOD 180 IS REPEATED USING SETTINGS FROM A PREVIOUS STRESS PERIOD.


 STRESS PERIOD 180 IS TRANSIENT

 UBDSV1 SAVING     FLOW-JA-FACE ON UNIT   1016 AT TIME STEP      1, STRESS PERIOD    180
 UBDSV06 SAVING              RIV IN MODEL GWF_1            PACKAGE GWF_1           CONNECTED TO MODEL GWF_1            PACKAGE RIV-1            ON UNIT   1016 AT TIME STEP      1, STRESS PERIOD    180
 UBDSV06 SAVING              RCH IN MODEL GWF_1            PACKAGE GWF_1           CONNECTED TO MODEL GWF_1            PACKAGE RCH_MSW          ON UNIT   1016 AT TIME STEP      1, STRESS PERIOD    180

 HEAD WILL BE SAVED ON UNIT 1017 AT END OF TIME STEP    1, STRESS PERIOD  180


  VOLUME BUDGET FOR ENTIRE MODEL AT END OF TIME STEP    1, STRESS PERIOD 180
  ---------------------------------------------------------------------------------------------------

     CUMULATIVE VOLUME      L**3       RATES FOR THIS TIME STEP      L**3/T          PACKAGE NAME    
     ------------------                 ------------------------                     ----------------

           IN:                                      IN:
           ---                                      ---
              STO-SS =        7490.9999                STO-SS =          11.9114     STORAGE                          
                 RIV =           0.0000                   RIV =           0.0000     RIV-1                            
                 RCH =       28317.9637                   RCH =          30.6007     RCH_MSW                          

            TOTAL IN =       35808.9637              TOTAL IN =          42.5121

          OUT:                                     OUT:
          ----                                     ----
              STO-SS =       29412.1602                STO-SS =          38.3852     STORAGE                          
                 RIV =           0.0000                   RIV =           0.0000     RIV-1                            
                 RCH =        6396.8034                   RCH =           4.1269     RCH_MSW                          

           TOTAL OUT =       35808.9637             TOTAL OUT =          42.5121

            IN - OUT =       2.1972E-07              IN - OUT =      -3.4614E-09

 PERCENT DISCREPANCY =           0.00     PERCENT DISCREPANCY =          -0.00




         TIME SUMMARY AT END OF TIME STEP    1 IN STRESS PERIOD  180
                    SECONDS     MINUTES      HOURS       DAYS        YEARS
                    -----------------------------------------------------------
   TIME STEP LENGTH  86400.      1440.0      24.000      1.0000     2.73785E-03
 STRESS PERIOD TIME  86400.      1440.0      24.000      1.0000     2.73785E-03
         TOTAL TIME 1.55520E+07 2.59200E+05  4320.0      180.00     0.49281    


end timestep


start timestep kper="181" kstp="1" mode="normal"


 OUTPUT CONTROL FOR STRESS PERIOD 181 IS REPEATED USING SETTINGS FROM A PREVIOUS STRESS PERIOD.


 STRESS PERIOD 181 IS TRANSIENT

 UBDSV1 SAVING     FLOW-JA-FACE ON UNIT   1016 AT TIME STEP      1, STRESS PERIOD    181
 UBDSV06 SAVING              RIV IN MODEL GWF_1            PACKAGE GWF_1           CONNECTED TO MODEL GWF_1            PACKAGE RIV-1            ON UNIT   1016 AT TIME STEP      1, STRESS PERIOD    181
 UBDSV06 SAVING              RCH IN MODEL GWF_1            PACKAGE GWF_1           CONNECTED TO MODEL GWF_1            PACKAGE RCH_MSW          ON UNIT   1016 AT TIME STEP      1, STRESS PERIOD    181

 HEAD WILL BE SAVED ON UNIT 1017 AT END OF TIME STEP    1, STRESS PERIOD  181


  VOLUME BUDGET FOR ENTIRE MODEL AT END OF TIME STEP    1, STRESS PERIOD 181
  ---------------------------------------------------------------------------------------------------

     CUMULATIVE VOLUME      L**3       RATES FOR THIS TIME STEP      L**3/T          PACKAGE NAME    
     ------------------                 ------------------------                     ----------------

           IN:                                      IN:
           ---                                      ---
              STO-SS =        7518.9305                STO-SS =          27.9305     STORAGE                          
                 RIV =           0.0000                   RIV =           0.0000     RIV-1                            
                 RCH =       28339.7865                   RCH =          21.8228     RCH_MSW                          

            TOTAL IN =       35858.7169              TOTAL IN =          49.7533

          OUT:                                     OUT:
          ----                                     ----
              STO-SS =       29442.0450                STO-SS =          29.8847     STORAGE                          
                 RIV =           0.0000                   RIV =           0.0000     RIV-1                            
                 RCH =        6416.6720                   RCH =          19.8685     RCH_MSW                          

           TOTAL OUT =       35858.7169             TOTAL OUT =          49.7533

            IN - OUT =       2.1437E-07              IN - OUT =      -5.3447E-09

 PERCENT DISCREPANCY =           0.00     PERCENT DISCREPANCY =          -0.00




         TIME SUMMARY AT END OF TIME STEP    1 IN STRESS PERIOD  181
                    SECONDS     MINUTES      HOURS       DAYS        YEARS
                    -----------------------------------------------------------
   TIME STEP LENGTH  86400.      1440.0      24.000      1.0000     2.73785E-03
 STRESS PERIOD TIME  86400.      1440.0      24.000      1.0000     2.73785E-03
         TOTAL TIME 1.56384E+07 2.60640E+05  4344.0      181.00     0.49555    


end timestep


start timestep kper="182" kstp="1" mode="normal"


 OUTPUT CONTROL FOR STRESS PERIOD 182 IS REPEATED USING SETTINGS FROM A PREVIOUS STRESS PERIOD.


 STRESS PERIOD 182 IS TRANSIENT

 UBDSV1 SAVING     FLOW-JA-FACE ON UNIT   1016 AT TIME STEP      1, STRESS PERIOD    182
 UBDSV06 SAVING              RIV IN MODEL GWF_1            PACKAGE GWF_1           CONNECTED TO MODEL GWF_1            PACKAGE RIV-1            ON UNIT   1016 AT TIME STEP      1, STRESS PERIOD    182
 UBDSV06 SAVING              RCH IN MODEL GWF_1            PACKAGE GWF_1           CONNECTED TO MODEL GWF_1            PACKAGE RCH_MSW          ON UNIT   1016 AT TIME STEP      1, STRESS PERIOD    182

 HEAD WILL BE SAVED ON UNIT 1017 AT END OF TIME STEP    1, STRESS PERIOD  182


  VOLUME BUDGET FOR ENTIRE MODEL AT END OF TIME STEP    1, STRESS PERIOD 182
  ---------------------------------------------------------------------------------------------------

     CUMULATIVE VOLUME      L**3       RATES FOR THIS TIME STEP      L**3/T          PACKAGE NAME    
     ------------------                 ------------------------                     ----------------

           IN:                                      IN:
           ---                                      ---
              STO-SS =        7563.5917                STO-SS =          44.6612     STORAGE                          
                 RIV =           0.0000                   RIV =           0.0000     RIV-1                            
                 RCH =       28353.8298                   RCH =          14.0433     RCH_MSW                          

            TOTAL IN =       35917.4215              TOTAL IN =          58.7045

          OUT:                                     OUT:
          ----                                     ----
              STO-SS =       29464.9730                STO-SS =          22.9280     STORAGE                          
                 RIV =           0.0000                   RIV =           0.0000     RIV-1                            
                 RCH =        6452.4485                   RCH =          35.7765     RCH_MSW                          

           TOTAL OUT =       35917.4215             TOTAL OUT =          58.7045

            IN - OUT =       2.0954E-07              IN - OUT =      -4.8261E-09

 PERCENT DISCREPANCY =           0.00     PERCENT DISCREPANCY =          -0.00




         TIME SUMMARY AT END OF TIME STEP    1 IN STRESS PERIOD  182
                    SECONDS     MINUTES      HOURS       DAYS        YEARS
                    -----------------------------------------------------------
   TIME STEP LENGTH  86400.      1440.0      24.000      1.0000     2.73785E-03
 STRESS PERIOD TIME  86400.      1440.0      24.000      1.0000     2.73785E-03
         TOTAL TIME 1.57248E+07 2.62080E+05  4368.0      182.00     0.49829    


end timestep


start timestep kper="183" kstp="1" mode="normal"


 OUTPUT CONTROL FOR STRESS PERIOD 183 IS REPEATED USING SETTINGS FROM A PREVIOUS STRESS PERIOD.


 STRESS PERIOD 183 IS TRANSIENT

 UBDSV1 SAVING     FLOW-JA-FACE ON UNIT   1016 AT TIME STEP      1, STRESS PERIOD    183
 UBDSV06 SAVING              RIV IN MODEL GWF_1            PACKAGE GWF_1           CONNECTED TO MODEL GWF_1            PACKAGE RIV-1            ON UNIT   1016 AT TIME STEP      1, STRESS PERIOD    183
 UBDSV06 SAVING              RCH IN MODEL GWF_1            PACKAGE GWF_1           CONNECTED TO MODEL GWF_1            PACKAGE RCH_MSW          ON UNIT   1016 AT TIME STEP      1, STRESS PERIOD    183

 HEAD WILL BE SAVED ON UNIT 1017 AT END OF TIME STEP    1, STRESS PERIOD  183


  VOLUME BUDGET FOR ENTIRE MODEL AT END OF TIME STEP    1, STRESS PERIOD 183
  ---------------------------------------------------------------------------------------------------

     CUMULATIVE VOLUME      L**3       RATES FOR THIS TIME STEP      L**3/T          PACKAGE NAME    
     ------------------                 ------------------------                     ----------------

           IN:                                      IN:
           ---                                      ---
              STO-SS =        7611.8810                STO-SS =          48.2894     STORAGE                          
                 RIV =           0.0000                   RIV =           0.0000     RIV-1                            
                 RCH =       28361.7928                   RCH =           7.9630     RCH_MSW                          

            TOTAL IN =       35973.6738              TOTAL IN =          56.2523

          OUT:                                     OUT:
          ----                                     ----
              STO-SS =       29482.5243                STO-SS =          17.5514     STORAGE                          
                 RIV =           0.0000                   RIV =           0.0000     RIV-1                            
                 RCH =        6491.1495                   RCH =          38.7010     RCH_MSW                          

           TOTAL OUT =       35973.6738             TOTAL OUT =          56.2523

            IN - OUT =       2.1268E-07              IN - OUT =       3.1271E-09

 PERCENT DISCREPANCY =           0.00     PERCENT DISCREPANCY =           0.00




         TIME SUMMARY AT END OF TIME STEP    1 IN STRESS PERIOD  183
                    SECONDS     MINUTES      HOURS       DAYS        YEARS
                    -----------------------------------------------------------
   TIME STEP LENGTH  86400.      1440.0      24.000      1.0000     2.73785E-03
 STRESS PERIOD TIME  86400.      1440.0      24.000      1.0000     2.73785E-03
         TOTAL TIME 1.58112E+07 2.63520E+05  4392.0      183.00     0.50103    


end timestep


start timestep kper="184" kstp="1" mode="normal"


 OUTPUT CONTROL FOR STRESS PERIOD 184 IS REPEATED USING SETTINGS FROM A PREVIOUS STRESS PERIOD.


 STRESS PERIOD 184 IS TRANSIENT

 UBDSV1 SAVING     FLOW-JA-FACE ON UNIT   1016 AT TIME STEP      1, STRESS PERIOD    184
 UBDSV06 SAVING              RIV IN MODEL GWF_1            PACKAGE GWF_1           CONNECTED TO MODEL GWF_1            PACKAGE RIV-1            ON UNIT   1016 AT TIME STEP      1, STRESS PERIOD    184
 UBDSV06 SAVING              RCH IN MODEL GWF_1            PACKAGE GWF_1           CONNECTED TO MODEL GWF_1            PACKAGE RCH_MSW          ON UNIT   1016 AT TIME STEP      1, STRESS PERIOD    184

 HEAD WILL BE SAVED ON UNIT 1017 AT END OF TIME STEP    1, STRESS PERIOD  184


  VOLUME BUDGET FOR ENTIRE MODEL AT END OF TIME STEP    1, STRESS PERIOD 184
  ---------------------------------------------------------------------------------------------------

     CUMULATIVE VOLUME      L**3       RATES FOR THIS TIME STEP      L**3/T          PACKAGE NAME    
     ------------------                 ------------------------                     ----------------

           IN:                                      IN:
           ---                                      ---
              STO-SS =        7673.7203                STO-SS =          61.8393     STORAGE                          
                 RIV =           0.0000                   RIV =           0.0000     RIV-1                            
                 RCH =       28364.5366                   RCH =           2.7438     RCH_MSW                          

            TOTAL IN =       36038.2569              TOTAL IN =          64.5831

          OUT:                                     OUT:
          ----                                     ----
              STO-SS =       29498.5472                STO-SS =          16.0229     STORAGE                          
                 RIV =           0.0000                   RIV =           0.0000     RIV-1                            
                 RCH =        6539.7097                   RCH =          48.5602     RCH_MSW                          

           TOTAL OUT =       36038.2569             TOTAL OUT =          64.5831

            IN - OUT =       2.1291E-07              IN - OUT =       2.3599E-10

 PERCENT DISCREPANCY =           0.00     PERCENT DISCREPANCY =           0.00




         TIME SUMMARY AT END OF TIME STEP    1 IN STRESS PERIOD  184
                    SECONDS     MINUTES      HOURS       DAYS        YEARS
                    -----------------------------------------------------------
   TIME STEP LENGTH  86400.      1440.0      24.000      1.0000     2.73785E-03
 STRESS PERIOD TIME  86400.      1440.0      24.000      1.0000     2.73785E-03
         TOTAL TIME 1.58976E+07 2.64960E+05  4416.0      184.00     0.50376    


end timestep


start timestep kper="185" kstp="1" mode="normal"


 OUTPUT CONTROL FOR STRESS PERIOD 185 IS REPEATED USING SETTINGS FROM A PREVIOUS STRESS PERIOD.


 STRESS PERIOD 185 IS TRANSIENT

 UBDSV1 SAVING     FLOW-JA-FACE ON UNIT   1016 AT TIME STEP      1, STRESS PERIOD    185
 UBDSV06 SAVING              RIV IN MODEL GWF_1            PACKAGE GWF_1           CONNECTED TO MODEL GWF_1            PACKAGE RIV-1            ON UNIT   1016 AT TIME STEP      1, STRESS PERIOD    185
 UBDSV06 SAVING              RCH IN MODEL GWF_1            PACKAGE GWF_1           CONNECTED TO MODEL GWF_1            PACKAGE RCH_MSW          ON UNIT   1016 AT TIME STEP      1, STRESS PERIOD    185

 HEAD WILL BE SAVED ON UNIT 1017 AT END OF TIME STEP    1, STRESS PERIOD  185


  VOLUME BUDGET FOR ENTIRE MODEL AT END OF TIME STEP    1, STRESS PERIOD 185
  ---------------------------------------------------------------------------------------------------

     CUMULATIVE VOLUME      L**3       RATES FOR THIS TIME STEP      L**3/T          PACKAGE NAME    
     ------------------                 ------------------------                     ----------------

           IN:                                      IN:
           ---                                      ---
              STO-SS =        7751.8373                STO-SS =          78.1169     STORAGE                          
                 RIV =           0.0000                   RIV =           0.0000     RIV-1                            
                 RCH =       28366.2229                   RCH =           1.6863     RCH_MSW                          

            TOTAL IN =       36118.0602              TOTAL IN =          79.8033

          OUT:                                     OUT:
          ----                                     ----
              STO-SS =       29514.0775                STO-SS =          15.5303     STORAGE                          
                 RIV =           0.0000                   RIV =           0.0000     RIV-1                            
                 RCH =        6603.9827                   RCH =          64.2729     RCH_MSW                          

           TOTAL OUT =       36118.0602             TOTAL OUT =          79.8033

            IN - OUT =       2.2903E-07              IN - OUT =       1.6126E-08

 PERCENT DISCREPANCY =           0.00     PERCENT DISCREPANCY =           0.00




         TIME SUMMARY AT END OF TIME STEP    1 IN STRESS PERIOD  185
                    SECONDS     MINUTES      HOURS       DAYS        YEARS
                    -----------------------------------------------------------
   TIME STEP LENGTH  86400.      1440.0      24.000      1.0000     2.73785E-03
 STRESS PERIOD TIME  86400.      1440.0      24.000      1.0000     2.73785E-03
         TOTAL TIME 1.59840E+07 2.66400E+05  4440.0      185.00     0.50650    


end timestep


start timestep kper="186" kstp="1" mode="normal"


 OUTPUT CONTROL FOR STRESS PERIOD 186 IS REPEATED USING SETTINGS FROM A PREVIOUS STRESS PERIOD.


 STRESS PERIOD 186 IS TRANSIENT

 UBDSV1 SAVING     FLOW-JA-FACE ON UNIT   1016 AT TIME STEP      1, STRESS PERIOD    186
 UBDSV06 SAVING              RIV IN MODEL GWF_1            PACKAGE GWF_1           CONNECTED TO MODEL GWF_1            PACKAGE RIV-1            ON UNIT   1016 AT TIME STEP      1, STRESS PERIOD    186
 UBDSV06 SAVING              RCH IN MODEL GWF_1            PACKAGE GWF_1           CONNECTED TO MODEL GWF_1            PACKAGE RCH_MSW          ON UNIT   1016 AT TIME STEP      1, STRESS PERIOD    186

 HEAD WILL BE SAVED ON UNIT 1017 AT END OF TIME STEP    1, STRESS PERIOD  186


  VOLUME BUDGET FOR ENTIRE MODEL AT END OF TIME STEP    1, STRESS PERIOD 186
  ---------------------------------------------------------------------------------------------------

     CUMULATIVE VOLUME      L**3       RATES FOR THIS TIME STEP      L**3/T          PACKAGE NAME    
     ------------------                 ------------------------                     ----------------

           IN:                                      IN:
           ---                                      ---
              STO-SS =        7841.3598                STO-SS =          89.5225     STORAGE                          
                 RIV =           0.0000                   RIV =           0.0000     RIV-1                            
                 RCH =       28367.4135                   RCH =           1.1906     RCH_MSW                          

            TOTAL IN =       36208.7733              TOTAL IN =          90.7131

          OUT:                                     OUT:
          ----                                     ----
              STO-SS =       29529.0992                STO-SS =          15.0217     STORAGE                          
                 RIV =           0.0000                   RIV =           0.0000     RIV-1                            
                 RCH =        6679.6741                   RCH =          75.6915     RCH_MSW                          

           TOTAL OUT =       36208.7733             TOTAL OUT =          90.7131

            IN - OUT =       2.3393E-07              IN - OUT =       4.8988E-09

 PERCENT DISCREPANCY =           0.00     PERCENT DISCREPANCY =           0.00




         TIME SUMMARY AT END OF TIME STEP    1 IN STRESS PERIOD  186
                    SECONDS     MINUTES      HOURS       DAYS        YEARS
                    -----------------------------------------------------------
   TIME STEP LENGTH  86400.      1440.0      24.000      1.0000     2.73785E-03
 STRESS PERIOD TIME  86400.      1440.0      24.000      1.0000     2.73785E-03
         TOTAL TIME 1.60704E+07 2.67840E+05  4464.0      186.00     0.50924    


end timestep


start timestep kper="187" kstp="1" mode="normal"


 OUTPUT CONTROL FOR STRESS PERIOD 187 IS REPEATED USING SETTINGS FROM A PREVIOUS STRESS PERIOD.


 STRESS PERIOD 187 IS TRANSIENT

 UBDSV1 SAVING     FLOW-JA-FACE ON UNIT   1016 AT TIME STEP      1, STRESS PERIOD    187
 UBDSV06 SAVING              RIV IN MODEL GWF_1            PACKAGE GWF_1           CONNECTED TO MODEL GWF_1            PACKAGE RIV-1            ON UNIT   1016 AT TIME STEP      1, STRESS PERIOD    187
 UBDSV06 SAVING              RCH IN MODEL GWF_1            PACKAGE GWF_1           CONNECTED TO MODEL GWF_1            PACKAGE RCH_MSW          ON UNIT   1016 AT TIME STEP      1, STRESS PERIOD    187

 HEAD WILL BE SAVED ON UNIT 1017 AT END OF TIME STEP    1, STRESS PERIOD  187


  VOLUME BUDGET FOR ENTIRE MODEL AT END OF TIME STEP    1, STRESS PERIOD 187
  ---------------------------------------------------------------------------------------------------

     CUMULATIVE VOLUME      L**3       RATES FOR THIS TIME STEP      L**3/T          PACKAGE NAME    
     ------------------                 ------------------------                     ----------------

           IN:                                      IN:
           ---                                      ---
              STO-SS =        7941.6835                STO-SS =         100.3237     STORAGE                          
                 RIV =           0.0000                   RIV =           0.0000     RIV-1                            
                 RCH =       28368.2714                   RCH =           0.8579     RCH_MSW                          

            TOTAL IN =       36309.9549              TOTAL IN =         101.1816

          OUT:                                     OUT:
          ----                                     ----
              STO-SS =       29543.8374                STO-SS =          14.7382     STORAGE                          
                 RIV =           0.0000                   RIV =           0.0000     RIV-1                            
                 RCH =        6766.1175                   RCH =          86.4434     RCH_MSW                          

           TOTAL OUT =       36309.9549             TOTAL OUT =         101.1816

            IN - OUT =       2.4722E-07              IN - OUT =       1.3288E-08

 PERCENT DISCREPANCY =           0.00     PERCENT DISCREPANCY =           0.00




         TIME SUMMARY AT END OF TIME STEP    1 IN STRESS PERIOD  187
                    SECONDS     MINUTES      HOURS       DAYS        YEARS
                    -----------------------------------------------------------
   TIME STEP LENGTH  86400.      1440.0      24.000      1.0000     2.73785E-03
 STRESS PERIOD TIME  86400.      1440.0      24.000      1.0000     2.73785E-03
         TOTAL TIME 1.61568E+07 2.69280E+05  4488.0      187.00     0.51198    


end timestep


start timestep kper="188" kstp="1" mode="normal"


 OUTPUT CONTROL FOR STRESS PERIOD 188 IS REPEATED USING SETTINGS FROM A PREVIOUS STRESS PERIOD.


 STRESS PERIOD 188 IS TRANSIENT

 UBDSV1 SAVING     FLOW-JA-FACE ON UNIT   1016 AT TIME STEP      1, STRESS PERIOD    188
 UBDSV06 SAVING              RIV IN MODEL GWF_1            PACKAGE GWF_1           CONNECTED TO MODEL GWF_1            PACKAGE RIV-1            ON UNIT   1016 AT TIME STEP      1, STRESS PERIOD    188
 UBDSV06 SAVING              RCH IN MODEL GWF_1            PACKAGE GWF_1           CONNECTED TO MODEL GWF_1            PACKAGE RCH_MSW          ON UNIT   1016 AT TIME STEP      1, STRESS PERIOD    188

 HEAD WILL BE SAVED ON UNIT 1017 AT END OF TIME STEP    1, STRESS PERIOD  188


  VOLUME BUDGET FOR ENTIRE MODEL AT END OF TIME STEP    1, STRESS PERIOD 188
  ---------------------------------------------------------------------------------------------------

     CUMULATIVE VOLUME      L**3       RATES FOR THIS TIME STEP      L**3/T          PACKAGE NAME    
     ------------------                 ------------------------                     ----------------

           IN:                                      IN:
           ---                                      ---
              STO-SS =        8051.5559                STO-SS =         109.8723     STORAGE                          
                 RIV =           0.0000                   RIV =           0.0000     RIV-1                            
                 RCH =       28368.7818                   RCH =           0.5104     RCH_MSW                          

            TOTAL IN =       36420.3377              TOTAL IN =         110.3828

          OUT:                                     OUT:
          ----                                     ----
              STO-SS =       29558.4864                STO-SS =          14.6490     STORAGE                          
                 RIV =           0.0000                   RIV =           0.0000     RIV-1                            
                 RCH =        6861.8513                   RCH =          95.7338     RCH_MSW                          

           TOTAL OUT =       36420.3377             TOTAL OUT =         110.3828

            IN - OUT =       2.5734E-07              IN - OUT =       1.0117E-08

 PERCENT DISCREPANCY =           0.00     PERCENT DISCREPANCY =           0.00




         TIME SUMMARY AT END OF TIME STEP    1 IN STRESS PERIOD  188
                    SECONDS     MINUTES      HOURS       DAYS        YEARS
                    -----------------------------------------------------------
   TIME STEP LENGTH  86400.      1440.0      24.000      1.0000     2.73785E-03
 STRESS PERIOD TIME  86400.      1440.0      24.000      1.0000     2.73785E-03
         TOTAL TIME 1.62432E+07 2.70720E+05  4512.0      188.00     0.51472    


end timestep


start timestep kper="189" kstp="1" mode="normal"


 OUTPUT CONTROL FOR STRESS PERIOD 189 IS REPEATED USING SETTINGS FROM A PREVIOUS STRESS PERIOD.


 STRESS PERIOD 189 IS TRANSIENT

 UBDSV1 SAVING     FLOW-JA-FACE ON UNIT   1016 AT TIME STEP      1, STRESS PERIOD    189
 UBDSV06 SAVING              RIV IN MODEL GWF_1            PACKAGE GWF_1           CONNECTED TO MODEL GWF_1            PACKAGE RIV-1            ON UNIT   1016 AT TIME STEP      1, STRESS PERIOD    189
 UBDSV06 SAVING              RCH IN MODEL GWF_1            PACKAGE GWF_1           CONNECTED TO MODEL GWF_1            PACKAGE RCH_MSW          ON UNIT   1016 AT TIME STEP      1, STRESS PERIOD    189

 HEAD WILL BE SAVED ON UNIT 1017 AT END OF TIME STEP    1, STRESS PERIOD  189


  VOLUME BUDGET FOR ENTIRE MODEL AT END OF TIME STEP    1, STRESS PERIOD 189
  ---------------------------------------------------------------------------------------------------

     CUMULATIVE VOLUME      L**3       RATES FOR THIS TIME STEP      L**3/T          PACKAGE NAME    
     ------------------                 ------------------------                     ----------------

           IN:                                      IN:
           ---                                      ---
              STO-SS =        8168.3077                STO-SS =         116.7519     STORAGE                          
                 RIV =           0.0000                   RIV =           0.0000     RIV-1                            
                 RCH =       28368.9491                   RCH =           0.1672     RCH_MSW                          

            TOTAL IN =       36537.2568              TOTAL IN =         116.9191

          OUT:                                     OUT:
          ----                                     ----
              STO-SS =       29573.0563                STO-SS =          14.5699     STORAGE                          
                 RIV =           0.0000                   RIV =           0.0000     RIV-1                            
                 RCH =        6964.2004                   RCH =         102.3491     RCH_MSW                          

           TOTAL OUT =       36537.2568             TOTAL OUT =         116.9191

            IN - OUT =       2.5003E-07              IN - OUT =      -7.3059E-09

 PERCENT DISCREPANCY =           0.00     PERCENT DISCREPANCY =          -0.00




         TIME SUMMARY AT END OF TIME STEP    1 IN STRESS PERIOD  189
                    SECONDS     MINUTES      HOURS       DAYS        YEARS
                    -----------------------------------------------------------
   TIME STEP LENGTH  86400.      1440.0      24.000      1.0000     2.73785E-03
 STRESS PERIOD TIME  86400.      1440.0      24.000      1.0000     2.73785E-03
         TOTAL TIME 1.63296E+07 2.72160E+05  4536.0      189.00     0.51745    


end timestep


start timestep kper="190" kstp="1" mode="normal"


 OUTPUT CONTROL FOR STRESS PERIOD 190 IS REPEATED USING SETTINGS FROM A PREVIOUS STRESS PERIOD.


 STRESS PERIOD 190 IS TRANSIENT

 UBDSV1 SAVING     FLOW-JA-FACE ON UNIT   1016 AT TIME STEP      1, STRESS PERIOD    190
 UBDSV06 SAVING              RIV IN MODEL GWF_1            PACKAGE GWF_1           CONNECTED TO MODEL GWF_1            PACKAGE RIV-1            ON UNIT   1016 AT TIME STEP      1, STRESS PERIOD    190
 UBDSV06 SAVING              RCH IN MODEL GWF_1            PACKAGE GWF_1           CONNECTED TO MODEL GWF_1            PACKAGE RCH_MSW          ON UNIT   1016 AT TIME STEP      1, STRESS PERIOD    190

 HEAD WILL BE SAVED ON UNIT 1017 AT END OF TIME STEP    1, STRESS PERIOD  190


  VOLUME BUDGET FOR ENTIRE MODEL AT END OF TIME STEP    1, STRESS PERIOD 190
  ---------------------------------------------------------------------------------------------------

     CUMULATIVE VOLUME      L**3       RATES FOR THIS TIME STEP      L**3/T          PACKAGE NAME    
     ------------------                 ------------------------                     ----------------

           IN:                                      IN:
           ---                                      ---
              STO-SS =        8290.2674                STO-SS =         121.9597     STORAGE                          
                 RIV =           0.0000                   RIV =           0.0000     RIV-1                            
                 RCH =       28368.9811                   RCH =       3.2068E-02     RCH_MSW                          

            TOTAL IN =       36659.2485              TOTAL IN =         121.9917

          OUT:                                     OUT:
          ----                                     ----
              STO-SS =       29587.5439                STO-SS =          14.4876     STORAGE                          
                 RIV =           0.0000                   RIV =           0.0000     RIV-1                            
                 RCH =        7071.7046                   RCH =         107.5041     RCH_MSW                          

           TOTAL OUT =       36659.2485             TOTAL OUT =         121.9917

            IN - OUT =       2.4935E-07              IN - OUT =      -6.8265E-10

 PERCENT DISCREPANCY =           0.00     PERCENT DISCREPANCY =          -0.00




         TIME SUMMARY AT END OF TIME STEP    1 IN STRESS PERIOD  190
                    SECONDS     MINUTES      HOURS       DAYS        YEARS
                    -----------------------------------------------------------
   TIME STEP LENGTH  86400.      1440.0      24.000      1.0000     2.73785E-03
 STRESS PERIOD TIME  86400.      1440.0      24.000      1.0000     2.73785E-03
         TOTAL TIME 1.64160E+07 2.73600E+05  4560.0      190.00     0.52019    


end timestep


start timestep kper="191" kstp="1" mode="normal"


 OUTPUT CONTROL FOR STRESS PERIOD 191 IS REPEATED USING SETTINGS FROM A PREVIOUS STRESS PERIOD.


 STRESS PERIOD 191 IS TRANSIENT

 UBDSV1 SAVING     FLOW-JA-FACE ON UNIT   1016 AT TIME STEP      1, STRESS PERIOD    191
 UBDSV06 SAVING              RIV IN MODEL GWF_1            PACKAGE GWF_1           CONNECTED TO MODEL GWF_1            PACKAGE RIV-1            ON UNIT   1016 AT TIME STEP      1, STRESS PERIOD    191
 UBDSV06 SAVING              RCH IN MODEL GWF_1            PACKAGE GWF_1           CONNECTED TO MODEL GWF_1            PACKAGE RCH_MSW          ON UNIT   1016 AT TIME STEP      1, STRESS PERIOD    191

 HEAD WILL BE SAVED ON UNIT 1017 AT END OF TIME STEP    1, STRESS PERIOD  191


  VOLUME BUDGET FOR ENTIRE MODEL AT END OF TIME STEP    1, STRESS PERIOD 191
  ---------------------------------------------------------------------------------------------------

     CUMULATIVE VOLUME      L**3       RATES FOR THIS TIME STEP      L**3/T          PACKAGE NAME    
     ------------------                 ------------------------                     ----------------

           IN:                                      IN:
           ---                                      ---
              STO-SS =        8416.8343                STO-SS =         126.5669     STORAGE                          
                 RIV =           0.0000                   RIV =           0.0000     RIV-1                            
                 RCH =       28369.0083                   RCH =       2.7211E-02     RCH_MSW                          

            TOTAL IN =       36785.8426              TOTAL IN =         126.5941

          OUT:                                     OUT:
          ----                                     ----
              STO-SS =       29601.9491                STO-SS =          14.4051     STORAGE                          
                 RIV =           0.0000                   RIV =           0.0000     RIV-1                            
                 RCH =        7183.8936                   RCH =         112.1890     RCH_MSW                          

           TOTAL OUT =       36785.8426             TOTAL OUT =         126.5941

            IN - OUT =       2.5290E-07              IN - OUT =       3.5542E-09

 PERCENT DISCREPANCY =           0.00     PERCENT DISCREPANCY =           0.00




         TIME SUMMARY AT END OF TIME STEP    1 IN STRESS PERIOD  191
                    SECONDS     MINUTES      HOURS       DAYS        YEARS
                    -----------------------------------------------------------
   TIME STEP LENGTH  86400.      1440.0      24.000      1.0000     2.73785E-03
 STRESS PERIOD TIME  86400.      1440.0      24.000      1.0000     2.73785E-03
         TOTAL TIME 1.65024E+07 2.75040E+05  4584.0      191.00     0.52293    


end timestep


start timestep kper="192" kstp="1" mode="normal"


 OUTPUT CONTROL FOR STRESS PERIOD 192 IS REPEATED USING SETTINGS FROM A PREVIOUS STRESS PERIOD.


 STRESS PERIOD 192 IS TRANSIENT

 UBDSV1 SAVING     FLOW-JA-FACE ON UNIT   1016 AT TIME STEP      1, STRESS PERIOD    192
 UBDSV06 SAVING              RIV IN MODEL GWF_1            PACKAGE GWF_1           CONNECTED TO MODEL GWF_1            PACKAGE RIV-1            ON UNIT   1016 AT TIME STEP      1, STRESS PERIOD    192
 UBDSV06 SAVING              RCH IN MODEL GWF_1            PACKAGE GWF_1           CONNECTED TO MODEL GWF_1            PACKAGE RCH_MSW          ON UNIT   1016 AT TIME STEP      1, STRESS PERIOD    192

 HEAD WILL BE SAVED ON UNIT 1017 AT END OF TIME STEP    1, STRESS PERIOD  192


  VOLUME BUDGET FOR ENTIRE MODEL AT END OF TIME STEP    1, STRESS PERIOD 192
  ---------------------------------------------------------------------------------------------------

     CUMULATIVE VOLUME      L**3       RATES FOR THIS TIME STEP      L**3/T          PACKAGE NAME    
     ------------------                 ------------------------                     ----------------

           IN:                                      IN:
           ---                                      ---
              STO-SS =        8547.3219                STO-SS =         130.4876     STORAGE                          
                 RIV =           0.0000                   RIV =           0.0000     RIV-1                            
                 RCH =       28369.0310                   RCH =       2.2689E-02     RCH_MSW                          

            TOTAL IN =       36916.3529              TOTAL IN =         130.5103

          OUT:                                     OUT:
          ----                                     ----
              STO-SS =       29616.2717                STO-SS =          14.3227     STORAGE                          
                 RIV =           0.0000                   RIV =           0.0000     RIV-1                            
                 RCH =        7300.0812                   RCH =         116.1876     RCH_MSW                          

           TOTAL OUT =       36916.3529             TOTAL OUT =         130.5103

            IN - OUT =       2.5494E-07              IN - OUT =       2.0298E-09

 PERCENT DISCREPANCY =           0.00     PERCENT DISCREPANCY =           0.00




         TIME SUMMARY AT END OF TIME STEP    1 IN STRESS PERIOD  192
                    SECONDS     MINUTES      HOURS       DAYS        YEARS
                    -----------------------------------------------------------
   TIME STEP LENGTH  86400.      1440.0      24.000      1.0000     2.73785E-03
 STRESS PERIOD TIME  86400.      1440.0      24.000      1.0000     2.73785E-03
         TOTAL TIME 1.65888E+07 2.76480E+05  4608.0      192.00     0.52567    


end timestep


start timestep kper="193" kstp="1" mode="normal"


 OUTPUT CONTROL FOR STRESS PERIOD 193 IS REPEATED USING SETTINGS FROM A PREVIOUS STRESS PERIOD.


 STRESS PERIOD 193 IS TRANSIENT

 UBDSV1 SAVING     FLOW-JA-FACE ON UNIT   1016 AT TIME STEP      1, STRESS PERIOD    193
 UBDSV06 SAVING              RIV IN MODEL GWF_1            PACKAGE GWF_1           CONNECTED TO MODEL GWF_1            PACKAGE RIV-1            ON UNIT   1016 AT TIME STEP      1, STRESS PERIOD    193
 UBDSV06 SAVING              RCH IN MODEL GWF_1            PACKAGE GWF_1           CONNECTED TO MODEL GWF_1            PACKAGE RCH_MSW          ON UNIT   1016 AT TIME STEP      1, STRESS PERIOD    193

 HEAD WILL BE SAVED ON UNIT 1017 AT END OF TIME STEP    1, STRESS PERIOD  193


  VOLUME BUDGET FOR ENTIRE MODEL AT END OF TIME STEP    1, STRESS PERIOD 193
  ---------------------------------------------------------------------------------------------------

     CUMULATIVE VOLUME      L**3       RATES FOR THIS TIME STEP      L**3/T          PACKAGE NAME    
     ------------------                 ------------------------                     ----------------

           IN:                                      IN:
           ---                                      ---
              STO-SS =        8680.1586                STO-SS =         132.8367     STORAGE                          
                 RIV =           0.0000                   RIV =           0.0000     RIV-1                            
                 RCH =       28369.0472                   RCH =       1.6161E-02     RCH_MSW                          

            TOTAL IN =       37049.2058              TOTAL IN =         132.8529

          OUT:                                     OUT:
          ----                                     ----
              STO-SS =       29630.5101                STO-SS =          14.2384     STORAGE                          
                 RIV =           0.0000                   RIV =           0.0000     RIV-1                            
                 RCH =        7418.6957                   RCH =         118.6145     RCH_MSW                          

           TOTAL OUT =       37049.2058             TOTAL OUT =         132.8529

            IN - OUT =       2.6334E-07              IN - OUT =       8.4031E-09

 PERCENT DISCREPANCY =           0.00     PERCENT DISCREPANCY =           0.00




         TIME SUMMARY AT END OF TIME STEP    1 IN STRESS PERIOD  193
                    SECONDS     MINUTES      HOURS       DAYS        YEARS
                    -----------------------------------------------------------
   TIME STEP LENGTH  86400.      1440.0      24.000      1.0000     2.73785E-03
 STRESS PERIOD TIME  86400.      1440.0      24.000      1.0000     2.73785E-03
         TOTAL TIME 1.66752E+07 2.77920E+05  4632.0      193.00     0.52841    


end timestep


start timestep kper="194" kstp="1" mode="normal"


 OUTPUT CONTROL FOR STRESS PERIOD 194 IS REPEATED USING SETTINGS FROM A PREVIOUS STRESS PERIOD.


 STRESS PERIOD 194 IS TRANSIENT

 UBDSV1 SAVING     FLOW-JA-FACE ON UNIT   1016 AT TIME STEP      1, STRESS PERIOD    194
 UBDSV06 SAVING              RIV IN MODEL GWF_1            PACKAGE GWF_1           CONNECTED TO MODEL GWF_1            PACKAGE RIV-1            ON UNIT   1016 AT TIME STEP      1, STRESS PERIOD    194
 UBDSV06 SAVING              RCH IN MODEL GWF_1            PACKAGE GWF_1           CONNECTED TO MODEL GWF_1            PACKAGE RCH_MSW          ON UNIT   1016 AT TIME STEP      1, STRESS PERIOD    194

 HEAD WILL BE SAVED ON UNIT 1017 AT END OF TIME STEP    1, STRESS PERIOD  194


  VOLUME BUDGET FOR ENTIRE MODEL AT END OF TIME STEP    1, STRESS PERIOD 194
  ---------------------------------------------------------------------------------------------------

     CUMULATIVE VOLUME      L**3       RATES FOR THIS TIME STEP      L**3/T          PACKAGE NAME    
     ------------------                 ------------------------                     ----------------

           IN:                                      IN:
           ---                                      ---
              STO-SS =        8814.6999                STO-SS =         134.5413     STORAGE                          
                 RIV =           0.0000                   RIV =           0.0000     RIV-1                            
                 RCH =       28369.0562                   RCH =       9.0571E-03     RCH_MSW                          

            TOTAL IN =       37183.7561              TOTAL IN =         134.5503

          OUT:                                     OUT:
          ----                                     ----
              STO-SS =       29644.6738                STO-SS =          14.1637     STORAGE                          
                 RIV =           0.0000                   RIV =           0.0000     RIV-1                            
                 RCH =        7539.0824                   RCH =         120.3866     RCH_MSW                          

           TOTAL OUT =       37183.7561             TOTAL OUT =         134.5503

            IN - OUT =       2.6284E-07              IN - OUT =      -4.9971E-10

 PERCENT DISCREPANCY =           0.00     PERCENT DISCREPANCY =          -0.00




         TIME SUMMARY AT END OF TIME STEP    1 IN STRESS PERIOD  194
                    SECONDS     MINUTES      HOURS       DAYS        YEARS
                    -----------------------------------------------------------
   TIME STEP LENGTH  86400.      1440.0      24.000      1.0000     2.73785E-03
 STRESS PERIOD TIME  86400.      1440.0      24.000      1.0000     2.73785E-03
         TOTAL TIME 1.67616E+07 2.79360E+05  4656.0      194.00     0.53114    


end timestep


start timestep kper="195" kstp="1" mode="normal"


 OUTPUT CONTROL FOR STRESS PERIOD 195 IS REPEATED USING SETTINGS FROM A PREVIOUS STRESS PERIOD.


 STRESS PERIOD 195 IS TRANSIENT

 UBDSV1 SAVING     FLOW-JA-FACE ON UNIT   1016 AT TIME STEP      1, STRESS PERIOD    195
 UBDSV06 SAVING              RIV IN MODEL GWF_1            PACKAGE GWF_1           CONNECTED TO MODEL GWF_1            PACKAGE RIV-1            ON UNIT   1016 AT TIME STEP      1, STRESS PERIOD    195
 UBDSV06 SAVING              RCH IN MODEL GWF_1            PACKAGE GWF_1           CONNECTED TO MODEL GWF_1            PACKAGE RCH_MSW          ON UNIT   1016 AT TIME STEP      1, STRESS PERIOD    195

 HEAD WILL BE SAVED ON UNIT 1017 AT END OF TIME STEP    1, STRESS PERIOD  195


  VOLUME BUDGET FOR ENTIRE MODEL AT END OF TIME STEP    1, STRESS PERIOD 195
  ---------------------------------------------------------------------------------------------------

     CUMULATIVE VOLUME      L**3       RATES FOR THIS TIME STEP      L**3/T          PACKAGE NAME    
     ------------------                 ------------------------                     ----------------

           IN:                                      IN:
           ---                                      ---
              STO-SS =        8950.3726                STO-SS =         135.6727     STORAGE                          
                 RIV =           0.0000                   RIV =           0.0000     RIV-1                            
                 RCH =       28369.0586                   RCH =       2.3365E-03     RCH_MSW                          

            TOTAL IN =       37319.4312              TOTAL IN =         135.6751

          OUT:                                     OUT:
          ----                                     ----
              STO-SS =       29658.7685                STO-SS =          14.0948     STORAGE                          
                 RIV =           0.0000                   RIV =           0.0000     RIV-1                            
                 RCH =        7660.6627                   RCH =         121.5803     RCH_MSW                          

           TOTAL OUT =       37319.4312             TOTAL OUT =         135.6751

            IN - OUT =       2.5890E-07              IN - OUT =      -3.9340E-09

 PERCENT DISCREPANCY =           0.00     PERCENT DISCREPANCY =          -0.00




         TIME SUMMARY AT END OF TIME STEP    1 IN STRESS PERIOD  195
                    SECONDS     MINUTES      HOURS       DAYS        YEARS
                    -----------------------------------------------------------
   TIME STEP LENGTH  86400.      1440.0      24.000      1.0000     2.73785E-03
 STRESS PERIOD TIME  86400.      1440.0      24.000      1.0000     2.73785E-03
         TOTAL TIME 1.68480E+07 2.80800E+05  4680.0      195.00     0.53388    


end timestep


start timestep kper="196" kstp="1" mode="normal"


 OUTPUT CONTROL FOR STRESS PERIOD 196 IS REPEATED USING SETTINGS FROM A PREVIOUS STRESS PERIOD.


 STRESS PERIOD 196 IS TRANSIENT

 UBDSV1 SAVING     FLOW-JA-FACE ON UNIT   1016 AT TIME STEP      1, STRESS PERIOD    196
 UBDSV06 SAVING              RIV IN MODEL GWF_1            PACKAGE GWF_1           CONNECTED TO MODEL GWF_1            PACKAGE RIV-1            ON UNIT   1016 AT TIME STEP      1, STRESS PERIOD    196
 UBDSV06 SAVING              RCH IN MODEL GWF_1            PACKAGE GWF_1           CONNECTED TO MODEL GWF_1            PACKAGE RCH_MSW          ON UNIT   1016 AT TIME STEP      1, STRESS PERIOD    196

 HEAD WILL BE SAVED ON UNIT 1017 AT END OF TIME STEP    1, STRESS PERIOD  196


  VOLUME BUDGET FOR ENTIRE MODEL AT END OF TIME STEP    1, STRESS PERIOD 196
  ---------------------------------------------------------------------------------------------------

     CUMULATIVE VOLUME      L**3       RATES FOR THIS TIME STEP      L**3/T          PACKAGE NAME    
     ------------------                 ------------------------                     ----------------

           IN:                                      IN:
           ---                                      ---
              STO-SS =        9087.3195                STO-SS =         136.9469     STORAGE                          
                 RIV =           0.0000                   RIV =           0.0000     RIV-1                            
                 RCH =       28369.0586                   RCH =           0.0000     RCH_MSW                          

            TOTAL IN =       37456.3781              TOTAL IN =         136.9469

          OUT:                                     OUT:
          ----                                     ----
              STO-SS =       29672.7992                STO-SS =          14.0307     STORAGE                          
                 RIV =           0.0000                   RIV =           0.0000     RIV-1                            
                 RCH =        7783.5789                   RCH =         122.9162     RCH_MSW                          

           TOTAL OUT =       37456.3781             TOTAL OUT =         136.9469

            IN - OUT =       2.6122E-07              IN - OUT =       2.3169E-09

 PERCENT DISCREPANCY =           0.00     PERCENT DISCREPANCY =           0.00




         TIME SUMMARY AT END OF TIME STEP    1 IN STRESS PERIOD  196
                    SECONDS     MINUTES      HOURS       DAYS        YEARS
                    -----------------------------------------------------------
   TIME STEP LENGTH  86400.      1440.0      24.000      1.0000     2.73785E-03
 STRESS PERIOD TIME  86400.      1440.0      24.000      1.0000     2.73785E-03
         TOTAL TIME 1.69344E+07 2.82240E+05  4704.0      196.00     0.53662    


end timestep


start timestep kper="197" kstp="1" mode="normal"


 OUTPUT CONTROL FOR STRESS PERIOD 197 IS REPEATED USING SETTINGS FROM A PREVIOUS STRESS PERIOD.


 STRESS PERIOD 197 IS TRANSIENT

 UBDSV1 SAVING     FLOW-JA-FACE ON UNIT   1016 AT TIME STEP      1, STRESS PERIOD    197
 UBDSV06 SAVING              RIV IN MODEL GWF_1            PACKAGE GWF_1           CONNECTED TO MODEL GWF_1            PACKAGE RIV-1            ON UNIT   1016 AT TIME STEP      1, STRESS PERIOD    197
 UBDSV06 SAVING              RCH IN MODEL GWF_1            PACKAGE GWF_1           CONNECTED TO MODEL GWF_1            PACKAGE RCH_MSW          ON UNIT   1016 AT TIME STEP      1, STRESS PERIOD    197

 HEAD WILL BE SAVED ON UNIT 1017 AT END OF TIME STEP    1, STRESS PERIOD  197


  VOLUME BUDGET FOR ENTIRE MODEL AT END OF TIME STEP    1, STRESS PERIOD 197
  ---------------------------------------------------------------------------------------------------

     CUMULATIVE VOLUME      L**3       RATES FOR THIS TIME STEP      L**3/T          PACKAGE NAME    
     ------------------                 ------------------------                     ----------------

           IN:                                      IN:
           ---                                      ---
              STO-SS =        9225.3596                STO-SS =         138.0401     STORAGE                          
                 RIV =           0.0000                   RIV =           0.0000     RIV-1                            
                 RCH =       28369.0586                   RCH =           0.0000     RCH_MSW                          

            TOTAL IN =       37594.4182              TOTAL IN =         138.0401

          OUT:                                     OUT:
          ----                                     ----
              STO-SS =       29686.7664                STO-SS =          13.9672     STORAGE                          
                 RIV =           0.0000                   RIV =           0.0000     RIV-1                            
                 RCH =        7907.6517                   RCH =         124.0729     RCH_MSW                          

           TOTAL OUT =       37594.4182             TOTAL OUT =         138.0401

            IN - OUT =       2.6310E-07              IN - OUT =       1.8813E-09

 PERCENT DISCREPANCY =           0.00     PERCENT DISCREPANCY =           0.00




         TIME SUMMARY AT END OF TIME STEP    1 IN STRESS PERIOD  197
                    SECONDS     MINUTES      HOURS       DAYS        YEARS
                    -----------------------------------------------------------
   TIME STEP LENGTH  86400.      1440.0      24.000      1.0000     2.73785E-03
 STRESS PERIOD TIME  86400.      1440.0      24.000      1.0000     2.73785E-03
         TOTAL TIME 1.70208E+07 2.83680E+05  4728.0      197.00     0.53936    


end timestep


start timestep kper="198" kstp="1" mode="normal"


 OUTPUT CONTROL FOR STRESS PERIOD 198 IS REPEATED USING SETTINGS FROM A PREVIOUS STRESS PERIOD.


 STRESS PERIOD 198 IS TRANSIENT

 UBDSV1 SAVING     FLOW-JA-FACE ON UNIT   1016 AT TIME STEP      1, STRESS PERIOD    198
 UBDSV06 SAVING              RIV IN MODEL GWF_1            PACKAGE GWF_1           CONNECTED TO MODEL GWF_1            PACKAGE RIV-1            ON UNIT   1016 AT TIME STEP      1, STRESS PERIOD    198
 UBDSV06 SAVING              RCH IN MODEL GWF_1            PACKAGE GWF_1           CONNECTED TO MODEL GWF_1            PACKAGE RCH_MSW          ON UNIT   1016 AT TIME STEP      1, STRESS PERIOD    198

 HEAD WILL BE SAVED ON UNIT 1017 AT END OF TIME STEP    1, STRESS PERIOD  198


  VOLUME BUDGET FOR ENTIRE MODEL AT END OF TIME STEP    1, STRESS PERIOD 198
  ---------------------------------------------------------------------------------------------------

     CUMULATIVE VOLUME      L**3       RATES FOR THIS TIME STEP      L**3/T          PACKAGE NAME    
     ------------------                 ------------------------                     ----------------

           IN:                                      IN:
           ---                                      ---
              STO-SS =        9363.9090                STO-SS =         138.5494     STORAGE                          
                 RIV =           0.0000                   RIV =           0.0000     RIV-1                            
                 RCH =       28369.0586                   RCH =           0.0000     RCH_MSW                          

            TOTAL IN =       37732.9676              TOTAL IN =         138.5494

          OUT:                                     OUT:
          ----                                     ----
              STO-SS =       29700.6851                STO-SS =          13.9187     STORAGE                          
                 RIV =           0.0000                   RIV =           0.0000     RIV-1                            
                 RCH =        8032.2825                   RCH =         124.6307     RCH_MSW                          

           TOTAL OUT =       37732.9676             TOTAL OUT =         138.5494

            IN - OUT =       2.6308E-07              IN - OUT =      -1.6712E-11

 PERCENT DISCREPANCY =           0.00     PERCENT DISCREPANCY =          -0.00




         TIME SUMMARY AT END OF TIME STEP    1 IN STRESS PERIOD  198
                    SECONDS     MINUTES      HOURS       DAYS        YEARS
                    -----------------------------------------------------------
   TIME STEP LENGTH  86400.      1440.0      24.000      1.0000     2.73785E-03
 STRESS PERIOD TIME  86400.      1440.0      24.000      1.0000     2.73785E-03
         TOTAL TIME 1.71072E+07 2.85120E+05  4752.0      198.00     0.54209    


end timestep


start timestep kper="199" kstp="1" mode="normal"


 OUTPUT CONTROL FOR STRESS PERIOD 199 IS REPEATED USING SETTINGS FROM A PREVIOUS STRESS PERIOD.


 STRESS PERIOD 199 IS TRANSIENT

 UBDSV1 SAVING     FLOW-JA-FACE ON UNIT   1016 AT TIME STEP      1, STRESS PERIOD    199
 UBDSV06 SAVING              RIV IN MODEL GWF_1            PACKAGE GWF_1           CONNECTED TO MODEL GWF_1            PACKAGE RIV-1            ON UNIT   1016 AT TIME STEP      1, STRESS PERIOD    199
 UBDSV06 SAVING              RCH IN MODEL GWF_1            PACKAGE GWF_1           CONNECTED TO MODEL GWF_1            PACKAGE RCH_MSW          ON UNIT   1016 AT TIME STEP      1, STRESS PERIOD    199

 HEAD WILL BE SAVED ON UNIT 1017 AT END OF TIME STEP    1, STRESS PERIOD  199


  VOLUME BUDGET FOR ENTIRE MODEL AT END OF TIME STEP    1, STRESS PERIOD 199
  ---------------------------------------------------------------------------------------------------

     CUMULATIVE VOLUME      L**3       RATES FOR THIS TIME STEP      L**3/T          PACKAGE NAME    
     ------------------                 ------------------------                     ----------------

           IN:                                      IN:
           ---                                      ---
              STO-SS =        9502.4493                STO-SS =         138.5403     STORAGE                          
                 RIV =           0.0000                   RIV =           0.0000     RIV-1                            
                 RCH =       28369.0586                   RCH =           0.0000     RCH_MSW                          

            TOTAL IN =       37871.5079              TOTAL IN =         138.5403

          OUT:                                     OUT:
          ----                                     ----
              STO-SS =       29714.5590                STO-SS =          13.8738     STORAGE                          
                 RIV =           0.0000                   RIV =           0.0000     RIV-1                            
                 RCH =        8156.9489                   RCH =         124.6665     RCH_MSW                          

           TOTAL OUT =       37871.5079             TOTAL OUT =         138.5403

            IN - OUT =       2.5908E-07              IN - OUT =      -4.0019E-09

 PERCENT DISCREPANCY =           0.00     PERCENT DISCREPANCY =          -0.00




         TIME SUMMARY AT END OF TIME STEP    1 IN STRESS PERIOD  199
                    SECONDS     MINUTES      HOURS       DAYS        YEARS
                    -----------------------------------------------------------
   TIME STEP LENGTH  86400.      1440.0      24.000      1.0000     2.73785E-03
 STRESS PERIOD TIME  86400.      1440.0      24.000      1.0000     2.73785E-03
         TOTAL TIME 1.71936E+07 2.86560E+05  4776.0      199.00     0.54483    


end timestep


start timestep kper="200" kstp="1" mode="normal"


 OUTPUT CONTROL FOR STRESS PERIOD 200 IS REPEATED USING SETTINGS FROM A PREVIOUS STRESS PERIOD.


 STRESS PERIOD 200 IS TRANSIENT

 UBDSV1 SAVING     FLOW-JA-FACE ON UNIT   1016 AT TIME STEP      1, STRESS PERIOD    200
 UBDSV06 SAVING              RIV IN MODEL GWF_1            PACKAGE GWF_1           CONNECTED TO MODEL GWF_1            PACKAGE RIV-1            ON UNIT   1016 AT TIME STEP      1, STRESS PERIOD    200
 UBDSV06 SAVING              RCH IN MODEL GWF_1            PACKAGE GWF_1           CONNECTED TO MODEL GWF_1            PACKAGE RCH_MSW          ON UNIT   1016 AT TIME STEP      1, STRESS PERIOD    200

 HEAD WILL BE SAVED ON UNIT 1017 AT END OF TIME STEP    1, STRESS PERIOD  200


  VOLUME BUDGET FOR ENTIRE MODEL AT END OF TIME STEP    1, STRESS PERIOD 200
  ---------------------------------------------------------------------------------------------------

     CUMULATIVE VOLUME      L**3       RATES FOR THIS TIME STEP      L**3/T          PACKAGE NAME    
     ------------------                 ------------------------                     ----------------

           IN:                                      IN:
           ---                                      ---
              STO-SS =        9641.0736                STO-SS =         138.6242     STORAGE                          
                 RIV =           0.0000                   RIV =           0.0000     RIV-1                            
                 RCH =       28369.0586                   RCH =           0.0000     RCH_MSW                          

            TOTAL IN =       38010.1321              TOTAL IN =         138.6242

          OUT:                                     OUT:
          ----                                     ----
              STO-SS =       29728.3896                STO-SS =          13.8306     STORAGE                          
                 RIV =           0.0000                   RIV =           0.0000     RIV-1                            
                 RCH =        8281.7425                   RCH =         124.7936     RCH_MSW                          

           TOTAL OUT =       38010.1321             TOTAL OUT =         138.6242

            IN - OUT =       2.5913E-07              IN - OUT =       4.5873E-11

 PERCENT DISCREPANCY =           0.00     PERCENT DISCREPANCY =           0.00




         TIME SUMMARY AT END OF TIME STEP    1 IN STRESS PERIOD  200
                    SECONDS     MINUTES      HOURS       DAYS        YEARS
                    -----------------------------------------------------------
   TIME STEP LENGTH  86400.      1440.0      24.000      1.0000     2.73785E-03
 STRESS PERIOD TIME  86400.      1440.0      24.000      1.0000     2.73785E-03
         TOTAL TIME 1.72800E+07 2.88000E+05  4800.0      200.00     0.54757    


end timestep


start timestep kper="201" kstp="1" mode="normal"


 OUTPUT CONTROL FOR STRESS PERIOD 201 IS REPEATED USING SETTINGS FROM A PREVIOUS STRESS PERIOD.


 STRESS PERIOD 201 IS TRANSIENT

 UBDSV1 SAVING     FLOW-JA-FACE ON UNIT   1016 AT TIME STEP      1, STRESS PERIOD    201
 UBDSV06 SAVING              RIV IN MODEL GWF_1            PACKAGE GWF_1           CONNECTED TO MODEL GWF_1            PACKAGE RIV-1            ON UNIT   1016 AT TIME STEP      1, STRESS PERIOD    201
 UBDSV06 SAVING              RCH IN MODEL GWF_1            PACKAGE GWF_1           CONNECTED TO MODEL GWF_1            PACKAGE RCH_MSW          ON UNIT   1016 AT TIME STEP      1, STRESS PERIOD    201

 HEAD WILL BE SAVED ON UNIT 1017 AT END OF TIME STEP    1, STRESS PERIOD  201


  VOLUME BUDGET FOR ENTIRE MODEL AT END OF TIME STEP    1, STRESS PERIOD 201
  ---------------------------------------------------------------------------------------------------

     CUMULATIVE VOLUME      L**3       RATES FOR THIS TIME STEP      L**3/T          PACKAGE NAME    
     ------------------                 ------------------------                     ----------------

           IN:                                      IN:
           ---                                      ---
              STO-SS =        9778.5367                STO-SS =         137.4631     STORAGE                          
                 RIV =           0.0000                   RIV =           0.0000     RIV-1                            
                 RCH =       28369.3996                   RCH =           0.3410     RCH_MSW                          

            TOTAL IN =       38147.9362              TOTAL IN =         137.8041

          OUT:                                     OUT:
          ----                                     ----
              STO-SS =       29742.1793                STO-SS =          13.7897     STORAGE                          
                 RIV =           0.0000                   RIV =           0.0000     RIV-1                            
                 RCH =        8405.7569                   RCH =         124.0144     RCH_MSW                          

           TOTAL OUT =       38147.9362             TOTAL OUT =         137.8041

            IN - OUT =       2.6229E-07              IN - OUT =       3.1609E-09

 PERCENT DISCREPANCY =           0.00     PERCENT DISCREPANCY =           0.00




         TIME SUMMARY AT END OF TIME STEP    1 IN STRESS PERIOD  201
                    SECONDS     MINUTES      HOURS       DAYS        YEARS
                    -----------------------------------------------------------
   TIME STEP LENGTH  86400.      1440.0      24.000      1.0000     2.73785E-03
 STRESS PERIOD TIME  86400.      1440.0      24.000      1.0000     2.73785E-03
         TOTAL TIME 1.73664E+07 2.89440E+05  4824.0      201.00     0.55031    


end timestep


start timestep kper="202" kstp="1" mode="normal"


 OUTPUT CONTROL FOR STRESS PERIOD 202 IS REPEATED USING SETTINGS FROM A PREVIOUS STRESS PERIOD.


 STRESS PERIOD 202 IS TRANSIENT

 UBDSV1 SAVING     FLOW-JA-FACE ON UNIT   1016 AT TIME STEP      1, STRESS PERIOD    202
 UBDSV06 SAVING              RIV IN MODEL GWF_1            PACKAGE GWF_1           CONNECTED TO MODEL GWF_1            PACKAGE RIV-1            ON UNIT   1016 AT TIME STEP      1, STRESS PERIOD    202
 UBDSV06 SAVING              RCH IN MODEL GWF_1            PACKAGE GWF_1           CONNECTED TO MODEL GWF_1            PACKAGE RCH_MSW          ON UNIT   1016 AT TIME STEP      1, STRESS PERIOD    202

 HEAD WILL BE SAVED ON UNIT 1017 AT END OF TIME STEP    1, STRESS PERIOD  202


  VOLUME BUDGET FOR ENTIRE MODEL AT END OF TIME STEP    1, STRESS PERIOD 202
  ---------------------------------------------------------------------------------------------------

     CUMULATIVE VOLUME      L**3       RATES FOR THIS TIME STEP      L**3/T          PACKAGE NAME    
     ------------------                 ------------------------                     ----------------

           IN:                                      IN:
           ---                                      ---
              STO-SS =        9912.6552                STO-SS =         134.1185     STORAGE                          
                 RIV =           0.0000                   RIV =           0.0000     RIV-1                            
                 RCH =       28370.7440                   RCH =           1.3445     RCH_MSW                          

            TOTAL IN =       38283.3992              TOTAL IN =         135.4630

          OUT:                                     OUT:
          ----                                     ----
              STO-SS =       29755.9283                STO-SS =          13.7490     STORAGE                          
                 RIV =           0.0000                   RIV =           0.0000     RIV-1                            
                 RCH =        8527.4709                   RCH =         121.7140     RCH_MSW                          

           TOTAL OUT =       38283.3992             TOTAL OUT =         135.4630

            IN - OUT =       2.6758E-07              IN - OUT =       5.2835E-09

 PERCENT DISCREPANCY =           0.00     PERCENT DISCREPANCY =           0.00




         TIME SUMMARY AT END OF TIME STEP    1 IN STRESS PERIOD  202
                    SECONDS     MINUTES      HOURS       DAYS        YEARS
                    -----------------------------------------------------------
   TIME STEP LENGTH  86400.      1440.0      24.000      1.0000     2.73785E-03
 STRESS PERIOD TIME  86400.      1440.0      24.000      1.0000     2.73785E-03
         TOTAL TIME 1.74528E+07 2.90880E+05  4848.0      202.00     0.55305    


end timestep


start timestep kper="203" kstp="1" mode="normal"


 OUTPUT CONTROL FOR STRESS PERIOD 203 IS REPEATED USING SETTINGS FROM A PREVIOUS STRESS PERIOD.


 STRESS PERIOD 203 IS TRANSIENT

 UBDSV1 SAVING     FLOW-JA-FACE ON UNIT   1016 AT TIME STEP      1, STRESS PERIOD    203
 UBDSV06 SAVING              RIV IN MODEL GWF_1            PACKAGE GWF_1           CONNECTED TO MODEL GWF_1            PACKAGE RIV-1            ON UNIT   1016 AT TIME STEP      1, STRESS PERIOD    203
 UBDSV06 SAVING              RCH IN MODEL GWF_1            PACKAGE GWF_1           CONNECTED TO MODEL GWF_1            PACKAGE RCH_MSW          ON UNIT   1016 AT TIME STEP      1, STRESS PERIOD    203

 HEAD WILL BE SAVED ON UNIT 1017 AT END OF TIME STEP    1, STRESS PERIOD  203


  VOLUME BUDGET FOR ENTIRE MODEL AT END OF TIME STEP    1, STRESS PERIOD 203
  ---------------------------------------------------------------------------------------------------

     CUMULATIVE VOLUME      L**3       RATES FOR THIS TIME STEP      L**3/T          PACKAGE NAME    
     ------------------                 ------------------------                     ----------------

           IN:                                      IN:
           ---                                      ---
              STO-SS =       10041.1471                STO-SS =         128.4920     STORAGE                          
                 RIV =           0.0000                   RIV =           0.0000     RIV-1                            
                 RCH =       28372.4230                   RCH =           1.6790     RCH_MSW                          

            TOTAL IN =       38413.5702              TOTAL IN =         130.1710

          OUT:                                     OUT:
          ----                                     ----
              STO-SS =       29769.7877                STO-SS =          13.8593     STORAGE                          
                 RIV =           0.0000                   RIV =           0.0000     RIV-1                            
                 RCH =        8643.7825                   RCH =         116.3116     RCH_MSW                          

           TOTAL OUT =       38413.5702             TOTAL OUT =         130.1710

            IN - OUT =       2.6885E-07              IN - OUT =       1.2709E-09

 PERCENT DISCREPANCY =           0.00     PERCENT DISCREPANCY =           0.00




         TIME SUMMARY AT END OF TIME STEP    1 IN STRESS PERIOD  203
                    SECONDS     MINUTES      HOURS       DAYS        YEARS
                    -----------------------------------------------------------
   TIME STEP LENGTH  86400.      1440.0      24.000      1.0000     2.73785E-03
 STRESS PERIOD TIME  86400.      1440.0      24.000      1.0000     2.73785E-03
         TOTAL TIME 1.75392E+07 2.92320E+05  4872.0      203.00     0.55578    


end timestep


start timestep kper="204" kstp="1" mode="normal"


 OUTPUT CONTROL FOR STRESS PERIOD 204 IS REPEATED USING SETTINGS FROM A PREVIOUS STRESS PERIOD.


 STRESS PERIOD 204 IS TRANSIENT

 UBDSV1 SAVING     FLOW-JA-FACE ON UNIT   1016 AT TIME STEP      1, STRESS PERIOD    204
 UBDSV06 SAVING              RIV IN MODEL GWF_1            PACKAGE GWF_1           CONNECTED TO MODEL GWF_1            PACKAGE RIV-1            ON UNIT   1016 AT TIME STEP      1, STRESS PERIOD    204
 UBDSV06 SAVING              RCH IN MODEL GWF_1            PACKAGE GWF_1           CONNECTED TO MODEL GWF_1            PACKAGE RCH_MSW          ON UNIT   1016 AT TIME STEP      1, STRESS PERIOD    204

 HEAD WILL BE SAVED ON UNIT 1017 AT END OF TIME STEP    1, STRESS PERIOD  204


  VOLUME BUDGET FOR ENTIRE MODEL AT END OF TIME STEP    1, STRESS PERIOD 204
  ---------------------------------------------------------------------------------------------------

     CUMULATIVE VOLUME      L**3       RATES FOR THIS TIME STEP      L**3/T          PACKAGE NAME    
     ------------------                 ------------------------                     ----------------

           IN:                                      IN:
           ---                                      ---
              STO-SS =       10158.8933                STO-SS =         117.7462     STORAGE                          
                 RIV =           0.0000                   RIV =           0.0000     RIV-1                            
                 RCH =       28373.8119                   RCH =           1.3889     RCH_MSW                          

            TOTAL IN =       38532.7052              TOTAL IN =         119.1350

          OUT:                                     OUT:
          ----                                     ----
              STO-SS =       29783.4528                STO-SS =          13.6651     STORAGE                          
                 RIV =           0.0000                   RIV =           0.0000     RIV-1                            
                 RCH =        8749.2525                   RCH =         105.4699     RCH_MSW                          

           TOTAL OUT =       38532.7052             TOTAL OUT =         119.1350

            IN - OUT =       2.6520E-07              IN - OUT =      -3.6501E-09

 PERCENT DISCREPANCY =           0.00     PERCENT DISCREPANCY =          -0.00




         TIME SUMMARY AT END OF TIME STEP    1 IN STRESS PERIOD  204
                    SECONDS     MINUTES      HOURS       DAYS        YEARS
                    -----------------------------------------------------------
   TIME STEP LENGTH  86400.      1440.0      24.000      1.0000     2.73785E-03
 STRESS PERIOD TIME  86400.      1440.0      24.000      1.0000     2.73785E-03
         TOTAL TIME 1.76256E+07 2.93760E+05  4896.0      204.00     0.55852    


end timestep


start timestep kper="205" kstp="1" mode="normal"


 OUTPUT CONTROL FOR STRESS PERIOD 205 IS REPEATED USING SETTINGS FROM A PREVIOUS STRESS PERIOD.


 STRESS PERIOD 205 IS TRANSIENT

 UBDSV1 SAVING     FLOW-JA-FACE ON UNIT   1016 AT TIME STEP      1, STRESS PERIOD    205
 UBDSV06 SAVING              RIV IN MODEL GWF_1            PACKAGE GWF_1           CONNECTED TO MODEL GWF_1            PACKAGE RIV-1            ON UNIT   1016 AT TIME STEP      1, STRESS PERIOD    205
 UBDSV06 SAVING              RCH IN MODEL GWF_1            PACKAGE GWF_1           CONNECTED TO MODEL GWF_1            PACKAGE RCH_MSW          ON UNIT   1016 AT TIME STEP      1, STRESS PERIOD    205

 HEAD WILL BE SAVED ON UNIT 1017 AT END OF TIME STEP    1, STRESS PERIOD  205


  VOLUME BUDGET FOR ENTIRE MODEL AT END OF TIME STEP    1, STRESS PERIOD 205
  ---------------------------------------------------------------------------------------------------

     CUMULATIVE VOLUME      L**3       RATES FOR THIS TIME STEP      L**3/T          PACKAGE NAME    
     ------------------                 ------------------------                     ----------------

           IN:                                      IN:
           ---                                      ---
              STO-SS =       10274.5088                STO-SS =         115.6155     STORAGE                          
                 RIV =           0.0000                   RIV =           0.0000     RIV-1                            
                 RCH =       28374.4911                   RCH =           0.6792     RCH_MSW                          

            TOTAL IN =       38648.9999              TOTAL IN =         116.2947

          OUT:                                     OUT:
          ----                                     ----
              STO-SS =       29797.0735                STO-SS =          13.6207     STORAGE                          
                 RIV =           0.0000                   RIV =           0.0000     RIV-1                            
                 RCH =        8851.9264                   RCH =         102.6740     RCH_MSW                          

           TOTAL OUT =       38648.9999             TOTAL OUT =         116.2947

            IN - OUT =       2.6482E-07              IN - OUT =      -3.7984E-10

 PERCENT DISCREPANCY =           0.00     PERCENT DISCREPANCY =          -0.00




         TIME SUMMARY AT END OF TIME STEP    1 IN STRESS PERIOD  205
                    SECONDS     MINUTES      HOURS       DAYS        YEARS
                    -----------------------------------------------------------
   TIME STEP LENGTH  86400.      1440.0      24.000      1.0000     2.73785E-03
 STRESS PERIOD TIME  86400.      1440.0      24.000      1.0000     2.73785E-03
         TOTAL TIME 1.77120E+07 2.95200E+05  4920.0      205.00     0.56126    


end timestep


start timestep kper="206" kstp="1" mode="normal"


 OUTPUT CONTROL FOR STRESS PERIOD 206 IS REPEATED USING SETTINGS FROM A PREVIOUS STRESS PERIOD.


 STRESS PERIOD 206 IS TRANSIENT

 UBDSV1 SAVING     FLOW-JA-FACE ON UNIT   1016 AT TIME STEP      1, STRESS PERIOD    206
 UBDSV06 SAVING              RIV IN MODEL GWF_1            PACKAGE GWF_1           CONNECTED TO MODEL GWF_1            PACKAGE RIV-1            ON UNIT   1016 AT TIME STEP      1, STRESS PERIOD    206
 UBDSV06 SAVING              RCH IN MODEL GWF_1            PACKAGE GWF_1           CONNECTED TO MODEL GWF_1            PACKAGE RCH_MSW          ON UNIT   1016 AT TIME STEP      1, STRESS PERIOD    206

 HEAD WILL BE SAVED ON UNIT 1017 AT END OF TIME STEP    1, STRESS PERIOD  206


  VOLUME BUDGET FOR ENTIRE MODEL AT END OF TIME STEP    1, STRESS PERIOD 206
  ---------------------------------------------------------------------------------------------------

     CUMULATIVE VOLUME      L**3       RATES FOR THIS TIME STEP      L**3/T          PACKAGE NAME    
     ------------------                 ------------------------                     ----------------

           IN:                                      IN:
           ---                                      ---
              STO-SS =       10388.3343                STO-SS =         113.8255     STORAGE                          
                 RIV =           0.0000                   RIV =           0.0000     RIV-1                            
                 RCH =       28374.4911                   RCH =           0.0000     RCH_MSW                          

            TOTAL IN =       38762.8254              TOTAL IN =         113.8255

          OUT:                                     OUT:
          ----                                     ----
              STO-SS =       29810.6484                STO-SS =          13.5750     STORAGE                          
                 RIV =           0.0000                   RIV =           0.0000     RIV-1                            
                 RCH =        8952.1770                   RCH =         100.2505     RCH_MSW                          

           TOTAL OUT =       38762.8254             TOTAL OUT =         113.8255

            IN - OUT =       2.6524E-07              IN - OUT =       4.1589E-10

 PERCENT DISCREPANCY =           0.00     PERCENT DISCREPANCY =           0.00




         TIME SUMMARY AT END OF TIME STEP    1 IN STRESS PERIOD  206
                    SECONDS     MINUTES      HOURS       DAYS        YEARS
                    -----------------------------------------------------------
   TIME STEP LENGTH  86400.      1440.0      24.000      1.0000     2.73785E-03
 STRESS PERIOD TIME  86400.      1440.0      24.000      1.0000     2.73785E-03
         TOTAL TIME 1.77984E+07 2.96640E+05  4944.0      206.00     0.56400    


end timestep


start timestep kper="207" kstp="1" mode="normal"


 OUTPUT CONTROL FOR STRESS PERIOD 207 IS REPEATED USING SETTINGS FROM A PREVIOUS STRESS PERIOD.


 STRESS PERIOD 207 IS TRANSIENT

 UBDSV1 SAVING     FLOW-JA-FACE ON UNIT   1016 AT TIME STEP      1, STRESS PERIOD    207
 UBDSV06 SAVING              RIV IN MODEL GWF_1            PACKAGE GWF_1           CONNECTED TO MODEL GWF_1            PACKAGE RIV-1            ON UNIT   1016 AT TIME STEP      1, STRESS PERIOD    207
 UBDSV06 SAVING              RCH IN MODEL GWF_1            PACKAGE GWF_1           CONNECTED TO MODEL GWF_1            PACKAGE RCH_MSW          ON UNIT   1016 AT TIME STEP      1, STRESS PERIOD    207

 HEAD WILL BE SAVED ON UNIT 1017 AT END OF TIME STEP    1, STRESS PERIOD  207


  VOLUME BUDGET FOR ENTIRE MODEL AT END OF TIME STEP    1, STRESS PERIOD 207
  ---------------------------------------------------------------------------------------------------

     CUMULATIVE VOLUME      L**3       RATES FOR THIS TIME STEP      L**3/T          PACKAGE NAME    
     ------------------                 ------------------------                     ----------------

           IN:                                      IN:
           ---                                      ---
              STO-SS =       10504.3348                STO-SS =         116.0005     STORAGE                          
                 RIV =           0.0000                   RIV =           0.0000     RIV-1                            
                 RCH =       28374.4911                   RCH =           0.0000     RCH_MSW                          

            TOTAL IN =       38878.8259              TOTAL IN =         116.0005

          OUT:                                     OUT:
          ----                                     ----
              STO-SS =       29824.1771                STO-SS =          13.5287     STORAGE                          
                 RIV =           0.0000                   RIV =           0.0000     RIV-1                            
                 RCH =        9054.6488                   RCH =         102.4718     RCH_MSW                          

           TOTAL OUT =       38878.8259             TOTAL OUT =         116.0005

            IN - OUT =       2.6503E-07              IN - OUT =      -1.9739E-10

 PERCENT DISCREPANCY =           0.00     PERCENT DISCREPANCY =          -0.00




         TIME SUMMARY AT END OF TIME STEP    1 IN STRESS PERIOD  207
                    SECONDS     MINUTES      HOURS       DAYS        YEARS
                    -----------------------------------------------------------
   TIME STEP LENGTH  86400.      1440.0      24.000      1.0000     2.73785E-03
 STRESS PERIOD TIME  86400.      1440.0      24.000      1.0000     2.73785E-03
         TOTAL TIME 1.78848E+07 2.98080E+05  4968.0      207.00     0.56674    


end timestep


start timestep kper="208" kstp="1" mode="normal"


 OUTPUT CONTROL FOR STRESS PERIOD 208 IS REPEATED USING SETTINGS FROM A PREVIOUS STRESS PERIOD.


 STRESS PERIOD 208 IS TRANSIENT

 UBDSV1 SAVING     FLOW-JA-FACE ON UNIT   1016 AT TIME STEP      1, STRESS PERIOD    208
 UBDSV06 SAVING              RIV IN MODEL GWF_1            PACKAGE GWF_1           CONNECTED TO MODEL GWF_1            PACKAGE RIV-1            ON UNIT   1016 AT TIME STEP      1, STRESS PERIOD    208
 UBDSV06 SAVING              RCH IN MODEL GWF_1            PACKAGE GWF_1           CONNECTED TO MODEL GWF_1            PACKAGE RCH_MSW          ON UNIT   1016 AT TIME STEP      1, STRESS PERIOD    208

 HEAD WILL BE SAVED ON UNIT 1017 AT END OF TIME STEP    1, STRESS PERIOD  208


  VOLUME BUDGET FOR ENTIRE MODEL AT END OF TIME STEP    1, STRESS PERIOD 208
  ---------------------------------------------------------------------------------------------------

     CUMULATIVE VOLUME      L**3       RATES FOR THIS TIME STEP      L**3/T          PACKAGE NAME    
     ------------------                 ------------------------                     ----------------

           IN:                                      IN:
           ---                                      ---
              STO-SS =       10618.8317                STO-SS =         114.4969     STORAGE                          
                 RIV =           0.0000                   RIV =           0.0000     RIV-1                            
                 RCH =       28374.4911                   RCH =           0.0000     RCH_MSW                          

            TOTAL IN =       38993.3228              TOTAL IN =         114.4969

          OUT:                                     OUT:
          ----                                     ----
              STO-SS =       29837.6590                STO-SS =          13.4819     STORAGE                          
                 RIV =           0.0000                   RIV =           0.0000     RIV-1                            
                 RCH =        9155.6637                   RCH =         101.0150     RCH_MSW                          

           TOTAL OUT =       38993.3228             TOTAL OUT =         114.4969

            IN - OUT =       2.6965E-07              IN - OUT =       4.6102E-09

 PERCENT DISCREPANCY =           0.00     PERCENT DISCREPANCY =           0.00




         TIME SUMMARY AT END OF TIME STEP    1 IN STRESS PERIOD  208
                    SECONDS     MINUTES      HOURS       DAYS        YEARS
                    -----------------------------------------------------------
   TIME STEP LENGTH  86400.      1440.0      24.000      1.0000     2.73785E-03
 STRESS PERIOD TIME  86400.      1440.0      24.000      1.0000     2.73785E-03
         TOTAL TIME 1.79712E+07 2.99520E+05  4992.0      208.00     0.56947    


end timestep


start timestep kper="209" kstp="1" mode="normal"


 OUTPUT CONTROL FOR STRESS PERIOD 209 IS REPEATED USING SETTINGS FROM A PREVIOUS STRESS PERIOD.


 STRESS PERIOD 209 IS TRANSIENT

 UBDSV1 SAVING     FLOW-JA-FACE ON UNIT   1016 AT TIME STEP      1, STRESS PERIOD    209
 UBDSV06 SAVING              RIV IN MODEL GWF_1            PACKAGE GWF_1           CONNECTED TO MODEL GWF_1            PACKAGE RIV-1            ON UNIT   1016 AT TIME STEP      1, STRESS PERIOD    209
 UBDSV06 SAVING              RCH IN MODEL GWF_1            PACKAGE GWF_1           CONNECTED TO MODEL GWF_1            PACKAGE RCH_MSW          ON UNIT   1016 AT TIME STEP      1, STRESS PERIOD    209

 HEAD WILL BE SAVED ON UNIT 1017 AT END OF TIME STEP    1, STRESS PERIOD  209


  VOLUME BUDGET FOR ENTIRE MODEL AT END OF TIME STEP    1, STRESS PERIOD 209
  ---------------------------------------------------------------------------------------------------

     CUMULATIVE VOLUME      L**3       RATES FOR THIS TIME STEP      L**3/T          PACKAGE NAME    
     ------------------                 ------------------------                     ----------------

           IN:                                      IN:
           ---                                      ---
              STO-SS =       10730.3388                STO-SS =         111.5071     STORAGE                          
                 RIV =           0.0000                   RIV =           0.0000     RIV-1                            
                 RCH =       28374.4911                   RCH =           0.0000     RCH_MSW                          

            TOTAL IN =       39104.8299              TOTAL IN =         111.5071

          OUT:                                     OUT:
          ----                                     ----
              STO-SS =       29851.0935                STO-SS =          13.4345     STORAGE                          
                 RIV =           0.0000                   RIV =           0.0000     RIV-1                            
                 RCH =        9253.7364                   RCH =          98.0726     RCH_MSW                          

           TOTAL OUT =       39104.8299             TOTAL OUT =         111.5071

            IN - OUT =       2.7128E-07              IN - OUT =       1.6231E-09

 PERCENT DISCREPANCY =           0.00     PERCENT DISCREPANCY =           0.00




         TIME SUMMARY AT END OF TIME STEP    1 IN STRESS PERIOD  209
                    SECONDS     MINUTES      HOURS       DAYS        YEARS
                    -----------------------------------------------------------
   TIME STEP LENGTH  86400.      1440.0      24.000      1.0000     2.73785E-03
 STRESS PERIOD TIME  86400.      1440.0      24.000      1.0000     2.73785E-03
         TOTAL TIME 1.80576E+07 3.00960E+05  5016.0      209.00     0.57221    


end timestep


start timestep kper="210" kstp="1" mode="normal"


 OUTPUT CONTROL FOR STRESS PERIOD 210 IS REPEATED USING SETTINGS FROM A PREVIOUS STRESS PERIOD.


 STRESS PERIOD 210 IS TRANSIENT

 UBDSV1 SAVING     FLOW-JA-FACE ON UNIT   1016 AT TIME STEP      1, STRESS PERIOD    210
 UBDSV06 SAVING              RIV IN MODEL GWF_1            PACKAGE GWF_1           CONNECTED TO MODEL GWF_1            PACKAGE RIV-1            ON UNIT   1016 AT TIME STEP      1, STRESS PERIOD    210
 UBDSV06 SAVING              RCH IN MODEL GWF_1            PACKAGE GWF_1           CONNECTED TO MODEL GWF_1            PACKAGE RCH_MSW          ON UNIT   1016 AT TIME STEP      1, STRESS PERIOD    210

 HEAD WILL BE SAVED ON UNIT 1017 AT END OF TIME STEP    1, STRESS PERIOD  210


  VOLUME BUDGET FOR ENTIRE MODEL AT END OF TIME STEP    1, STRESS PERIOD 210
  ---------------------------------------------------------------------------------------------------

     CUMULATIVE VOLUME      L**3       RATES FOR THIS TIME STEP      L**3/T          PACKAGE NAME    
     ------------------                 ------------------------                     ----------------

           IN:                                      IN:
           ---                                      ---
              STO-SS =       10826.5402                STO-SS =          96.2014     STORAGE                          
                 RIV =           0.0000                   RIV =           0.0000     RIV-1                            
                 RCH =       28374.4911                   RCH =           0.0000     RCH_MSW                          

            TOTAL IN =       39201.0313              TOTAL IN =          96.2014

          OUT:                                     OUT:
          ----                                     ----
              STO-SS =       29864.4803                STO-SS =          13.3868     STORAGE                          
                 RIV =           0.0000                   RIV =           0.0000     RIV-1                            
                 RCH =        9336.5510                   RCH =          82.8146     RCH_MSW                          

           TOTAL OUT =       39201.0313             TOTAL OUT =          96.2014

            IN - OUT =       2.6681E-07              IN - OUT =      -4.4660E-09

 PERCENT DISCREPANCY =           0.00     PERCENT DISCREPANCY =          -0.00




         TIME SUMMARY AT END OF TIME STEP    1 IN STRESS PERIOD  210
                    SECONDS     MINUTES      HOURS       DAYS        YEARS
                    -----------------------------------------------------------
   TIME STEP LENGTH  86400.      1440.0      24.000      1.0000     2.73785E-03
 STRESS PERIOD TIME  86400.      1440.0      24.000      1.0000     2.73785E-03
         TOTAL TIME 1.81440E+07 3.02400E+05  5040.0      210.00     0.57495    


end timestep


start timestep kper="211" kstp="1" mode="normal"


 OUTPUT CONTROL FOR STRESS PERIOD 211 IS REPEATED USING SETTINGS FROM A PREVIOUS STRESS PERIOD.


 STRESS PERIOD 211 IS TRANSIENT

 UBDSV1 SAVING     FLOW-JA-FACE ON UNIT   1016 AT TIME STEP      1, STRESS PERIOD    211
 UBDSV06 SAVING              RIV IN MODEL GWF_1            PACKAGE GWF_1           CONNECTED TO MODEL GWF_1            PACKAGE RIV-1            ON UNIT   1016 AT TIME STEP      1, STRESS PERIOD    211
 UBDSV06 SAVING              RCH IN MODEL GWF_1            PACKAGE GWF_1           CONNECTED TO MODEL GWF_1            PACKAGE RCH_MSW          ON UNIT   1016 AT TIME STEP      1, STRESS PERIOD    211

 HEAD WILL BE SAVED ON UNIT 1017 AT END OF TIME STEP    1, STRESS PERIOD  211


  VOLUME BUDGET FOR ENTIRE MODEL AT END OF TIME STEP    1, STRESS PERIOD 211
  ---------------------------------------------------------------------------------------------------

     CUMULATIVE VOLUME      L**3       RATES FOR THIS TIME STEP      L**3/T          PACKAGE NAME    
     ------------------                 ------------------------                     ----------------

           IN:                                      IN:
           ---                                      ---
              STO-SS =       10929.8993                STO-SS =         103.3591     STORAGE                          
                 RIV =           0.0000                   RIV =           0.0000     RIV-1                            
                 RCH =       28374.4911                   RCH =           0.0000     RCH_MSW                          

            TOTAL IN =       39304.3904              TOTAL IN =         103.3591

          OUT:                                     OUT:
          ----                                     ----
              STO-SS =       29877.8191                STO-SS =          13.3387     STORAGE                          
                 RIV =           0.0000                   RIV =           0.0000     RIV-1                            
                 RCH =        9426.5713                   RCH =          90.0203     RCH_MSW                          

           TOTAL OUT =       39304.3904             TOTAL OUT =         103.3591

            IN - OUT =       2.6702E-07              IN - OUT =       2.1333E-10

 PERCENT DISCREPANCY =           0.00     PERCENT DISCREPANCY =           0.00




         TIME SUMMARY AT END OF TIME STEP    1 IN STRESS PERIOD  211
                    SECONDS     MINUTES      HOURS       DAYS        YEARS
                    -----------------------------------------------------------
   TIME STEP LENGTH  86400.      1440.0      24.000      1.0000     2.73785E-03
 STRESS PERIOD TIME  86400.      1440.0      24.000      1.0000     2.73785E-03
         TOTAL TIME 1.82304E+07 3.03840E+05  5064.0      211.00     0.57769    


end timestep


start timestep kper="212" kstp="1" mode="normal"


 OUTPUT CONTROL FOR STRESS PERIOD 212 IS REPEATED USING SETTINGS FROM A PREVIOUS STRESS PERIOD.


 STRESS PERIOD 212 IS TRANSIENT

 UBDSV1 SAVING     FLOW-JA-FACE ON UNIT   1016 AT TIME STEP      1, STRESS PERIOD    212
 UBDSV06 SAVING              RIV IN MODEL GWF_1            PACKAGE GWF_1           CONNECTED TO MODEL GWF_1            PACKAGE RIV-1            ON UNIT   1016 AT TIME STEP      1, STRESS PERIOD    212
 UBDSV06 SAVING              RCH IN MODEL GWF_1            PACKAGE GWF_1           CONNECTED TO MODEL GWF_1            PACKAGE RCH_MSW          ON UNIT   1016 AT TIME STEP      1, STRESS PERIOD    212

 HEAD WILL BE SAVED ON UNIT 1017 AT END OF TIME STEP    1, STRESS PERIOD  212


  VOLUME BUDGET FOR ENTIRE MODEL AT END OF TIME STEP    1, STRESS PERIOD 212
  ---------------------------------------------------------------------------------------------------

     CUMULATIVE VOLUME      L**3       RATES FOR THIS TIME STEP      L**3/T          PACKAGE NAME    
     ------------------                 ------------------------                     ----------------

           IN:                                      IN:
           ---                                      ---
              STO-SS =       11042.1717                STO-SS =         112.2725     STORAGE                          
                 RIV =           0.0000                   RIV =           0.0000     RIV-1                            
                 RCH =       28374.4911                   RCH =           0.0000     RCH_MSW                          

            TOTAL IN =       39416.6628              TOTAL IN =         112.2725

          OUT:                                     OUT:
          ----                                     ----
              STO-SS =       29891.1093                STO-SS =          13.2903     STORAGE                          
                 RIV =           0.0000                   RIV =           0.0000     RIV-1                            
                 RCH =        9525.5535                   RCH =          98.9822     RCH_MSW                          

           TOTAL OUT =       39416.6628             TOTAL OUT =         112.2725

            IN - OUT =       2.9772E-07              IN - OUT =       3.0700E-08

 PERCENT DISCREPANCY =           0.00     PERCENT DISCREPANCY =           0.00




         TIME SUMMARY AT END OF TIME STEP    1 IN STRESS PERIOD  212
                    SECONDS     MINUTES      HOURS       DAYS        YEARS
                    -----------------------------------------------------------
   TIME STEP LENGTH  86400.      1440.0      24.000      1.0000     2.73785E-03
 STRESS PERIOD TIME  86400.      1440.0      24.000      1.0000     2.73785E-03
         TOTAL TIME 1.83168E+07 3.05280E+05  5088.0      212.00     0.58042    


end timestep

